data_40
_audit_creation_date              2023-12-23
_audit_creation_method            'Materials Studio'
_symmetry_space_group_name_H-M    'P1'
_symmetry_Int_Tables_number       1
_symmetry_cell_setting            triclinic
loop_
_symmetry_equiv_pos_as_xyz
  x,y,z
_cell_length_a                    26.8446
_cell_length_b                    25.6737
_cell_length_c                    24.8676
_cell_angle_alpha                 90.0000
_cell_angle_beta                  90.0000
_cell_angle_gamma                 61.4612
loop_
_atom_site_label
_atom_site_type_symbol
_atom_site_fract_x
_atom_site_fract_y
_atom_site_fract_z
_atom_site_U_iso_or_equiv
_atom_site_adp_type
_atom_site_occupancy
C1     C     0.19304   0.99190   0.01899   0.00000  Uiso   1.00
C2     C     0.15280   0.04758   0.04648   0.00000  Uiso   1.00
C3     C     0.19304   0.99190   0.12986   0.00000  Uiso   1.00
C4     C     0.09731   0.07530   0.01905   0.00000  Uiso   1.00
C5     C     0.05701   0.05989   0.04653   0.00000  Uiso   1.00
C6     C     0.15280   0.04758   0.10238   0.00000  Uiso   1.00
C7     C     0.09731   0.07530   0.12981   0.00000  Uiso   1.00
C8     C     0.05696   0.00810   0.01899   0.00000  Uiso   1.00
C9     C     0.09720   0.95242   0.04648   0.00000  Uiso   1.00
C10    C     0.05701   0.05989   0.10233   0.00000  Uiso   1.00
C11    C     0.05696   0.00810   0.12986   0.00000  Uiso   1.00
C12    C     0.15269   0.92470   0.01905   0.00000  Uiso   1.00
C13    C     0.19299   0.94011   0.04653   0.00000  Uiso   1.00
C14    C     0.09720   0.95242   0.10238   0.00000  Uiso   1.00
C15    C     0.15269   0.92470   0.12981   0.00000  Uiso   1.00
C16    C     0.19299   0.94011   0.10233   0.00000  Uiso   1.00
C17    C     0.44304   0.74190   0.01899   0.00000  Uiso   1.00
C18    C     0.40280   0.79758   0.04648   0.00000  Uiso   1.00
C19    C     0.44304   0.74190   0.12986   0.00000  Uiso   1.00
C20    C     0.34731   0.82529   0.01905   0.00000  Uiso   1.00
C21    C     0.30702   0.80989   0.04653   0.00000  Uiso   1.00
C22    C     0.40280   0.79758   0.10238   0.00000  Uiso   1.00
C23    C     0.34731   0.82530   0.12981   0.00000  Uiso   1.00
C24    C     0.30696   0.75810   0.01899   0.00000  Uiso   1.00
C25    C     0.34720   0.70242   0.04648   0.00000  Uiso   1.00
C26    C     0.30701   0.80989   0.10233   0.00000  Uiso   1.00
C27    C     0.30696   0.75810   0.12986   0.00000  Uiso   1.00
C28    C     0.40270   0.67470   0.01905   0.00000  Uiso   1.00
C29    C     0.44299   0.69011   0.04653   0.00000  Uiso   1.00
C30    C     0.34720   0.70242   0.10238   0.00000  Uiso   1.00
C31    C     0.40270   0.67470   0.12981   0.00000  Uiso   1.00
C32    C     0.44299   0.69011   0.10233   0.00000  Uiso   1.00
C33    C     0.69304   0.49190   0.01899   0.00000  Uiso   1.00
C34    C     0.65280   0.54758   0.04648   0.00000  Uiso   1.00
C35    C     0.69304   0.49190   0.12986   0.00000  Uiso   1.00
C36    C     0.59731   0.57529   0.01905   0.00000  Uiso   1.00
C37    C     0.55702   0.55989   0.04653   0.00000  Uiso   1.00
C38    C     0.65280   0.54758   0.10238   0.00000  Uiso   1.00
C39    C     0.59731   0.57529   0.12981   0.00000  Uiso   1.00
C40    C     0.55696   0.50810   0.01899   0.00000  Uiso   1.00
C41    C     0.59720   0.45242   0.04648   0.00000  Uiso   1.00
C42    C     0.55701   0.55989   0.10233   0.00000  Uiso   1.00
C43    C     0.55696   0.50810   0.12986   0.00000  Uiso   1.00
C44    C     0.65270   0.42470   0.01905   0.00000  Uiso   1.00
C45    C     0.69299   0.44011   0.04653   0.00000  Uiso   1.00
C46    C     0.59720   0.45242   0.10238   0.00000  Uiso   1.00
C47    C     0.65270   0.42470   0.12981   0.00000  Uiso   1.00
C48    C     0.69299   0.44011   0.10233   0.00000  Uiso   1.00
C49    C     0.94304   0.24190   0.01899   0.00000  Uiso   1.00
C50    C     0.90280   0.29758   0.04648   0.00000  Uiso   1.00
C51    C     0.94304   0.24190   0.12986   0.00000  Uiso   1.00
C52    C     0.84731   0.32529   0.01905   0.00000  Uiso   1.00
C53    C     0.80702   0.30989   0.04653   0.00000  Uiso   1.00
C54    C     0.90280   0.29758   0.10238   0.00000  Uiso   1.00
C55    C     0.84731   0.32529   0.12981   0.00000  Uiso   1.00
C56    C     0.80696   0.25809   0.01899   0.00000  Uiso   1.00
C57    C     0.84720   0.20242   0.04648   0.00000  Uiso   1.00
C58    C     0.80702   0.30989   0.10233   0.00000  Uiso   1.00
C59    C     0.80696   0.25810   0.12986   0.00000  Uiso   1.00
C60    C     0.90270   0.17470   0.01905   0.00000  Uiso   1.00
C61    C     0.94299   0.19011   0.04653   0.00000  Uiso   1.00
C62    C     0.84720   0.20242   0.10238   0.00000  Uiso   1.00
C63    C     0.90270   0.17470   0.12981   0.00000  Uiso   1.00
C64    C     0.94299   0.19011   0.10233   0.00000  Uiso   1.00
C65    C     0.19304   0.24190   0.01899   0.00000  Uiso   1.00
C66    C     0.15280   0.29758   0.04648   0.00000  Uiso   1.00
C67    C     0.19304   0.24190   0.12986   0.00000  Uiso   1.00
C68    C     0.09731   0.32530   0.01905   0.00000  Uiso   1.00
C69    C     0.05701   0.30989   0.04653   0.00000  Uiso   1.00
C70    C     0.15280   0.29758   0.10238   0.00000  Uiso   1.00
C71    C     0.09730   0.32530   0.12981   0.00000  Uiso   1.00
C72    C     0.05696   0.25810   0.01899   0.00000  Uiso   1.00
C73    C     0.09720   0.20242   0.04648   0.00000  Uiso   1.00
C74    C     0.05701   0.30989   0.10233   0.00000  Uiso   1.00
C75    C     0.05696   0.25810   0.12986   0.00000  Uiso   1.00
C76    C     0.15269   0.17470   0.01905   0.00000  Uiso   1.00
C77    C     0.19299   0.19011   0.04653   0.00000  Uiso   1.00
C78    C     0.09720   0.20242   0.10238   0.00000  Uiso   1.00
C79    C     0.15270   0.17470   0.12981   0.00000  Uiso   1.00
C80    C     0.19299   0.19011   0.10233   0.00000  Uiso   1.00
C81    C     0.44304   0.99190   0.01899   0.00000  Uiso   1.00
C82    C     0.40280   0.04758   0.04648   0.00000  Uiso   1.00
C83    C     0.44304   0.99190   0.12986   0.00000  Uiso   1.00
C84    C     0.34731   0.07529   0.01905   0.00000  Uiso   1.00
C85    C     0.30701   0.05989   0.04653   0.00000  Uiso   1.00
C86    C     0.40280   0.04758   0.10238   0.00000  Uiso   1.00
C87    C     0.34731   0.07529   0.12981   0.00000  Uiso   1.00
C88    C     0.30696   0.00810   0.01899   0.00000  Uiso   1.00
C89    C     0.34720   0.95242   0.04648   0.00000  Uiso   1.00
C90    C     0.30702   0.05989   0.10233   0.00000  Uiso   1.00
C91    C     0.30696   0.00810   0.12986   0.00000  Uiso   1.00
C92    C     0.40270   0.92470   0.01905   0.00000  Uiso   1.00
C93    C     0.44299   0.94011   0.04653   0.00000  Uiso   1.00
C94    C     0.34720   0.95242   0.10238   0.00000  Uiso   1.00
C95    C     0.40269   0.92470   0.12981   0.00000  Uiso   1.00
C96    C     0.44299   0.94011   0.10233   0.00000  Uiso   1.00
C97    C     0.69304   0.74190   0.01899   0.00000  Uiso   1.00
C98    C     0.65280   0.79758   0.04648   0.00000  Uiso   1.00
C99    C     0.69304   0.74190   0.12986   0.00000  Uiso   1.00
C100   C     0.59731   0.82529   0.01905   0.00000  Uiso   1.00
C101   C     0.55702   0.80989   0.04653   0.00000  Uiso   1.00
C102   C     0.65280   0.79758   0.10238   0.00000  Uiso   1.00
C103   C     0.59731   0.82529   0.12981   0.00000  Uiso   1.00
C104   C     0.55696   0.75810   0.01899   0.00000  Uiso   1.00
C105   C     0.59720   0.70242   0.04648   0.00000  Uiso   1.00
C106   C     0.55702   0.80989   0.10233   0.00000  Uiso   1.00
C107   C     0.55696   0.75810   0.12986   0.00000  Uiso   1.00
C108   C     0.65270   0.67470   0.01905   0.00000  Uiso   1.00
C109   C     0.69299   0.69011   0.04653   0.00000  Uiso   1.00
C110   C     0.59720   0.70242   0.10238   0.00000  Uiso   1.00
C111   C     0.65270   0.67470   0.12981   0.00000  Uiso   1.00
C112   C     0.69299   0.69011   0.10233   0.00000  Uiso   1.00
C113   C     0.94304   0.49190   0.01899   0.00000  Uiso   1.00
C114   C     0.90280   0.54758   0.04648   0.00000  Uiso   1.00
C115   C     0.94304   0.49190   0.12986   0.00000  Uiso   1.00
C116   C     0.84731   0.57529   0.01905   0.00000  Uiso   1.00
C117   C     0.80702   0.55989   0.04653   0.00000  Uiso   1.00
C118   C     0.90280   0.54758   0.10238   0.00000  Uiso   1.00
C119   C     0.84731   0.57529   0.12981   0.00000  Uiso   1.00
C120   C     0.80696   0.50810   0.01899   0.00000  Uiso   1.00
C121   C     0.84720   0.45242   0.04648   0.00000  Uiso   1.00
C122   C     0.80702   0.55989   0.10233   0.00000  Uiso   1.00
C123   C     0.80696   0.50810   0.12986   0.00000  Uiso   1.00
C124   C     0.90270   0.42470   0.01905   0.00000  Uiso   1.00
C125   C     0.94299   0.44011   0.04653   0.00000  Uiso   1.00
C126   C     0.84720   0.45242   0.10238   0.00000  Uiso   1.00
C127   C     0.90270   0.42470   0.12981   0.00000  Uiso   1.00
C128   C     0.94299   0.44011   0.10233   0.00000  Uiso   1.00
C129   C     0.19304   0.49190   0.01899   0.00000  Uiso   1.00
C130   C     0.15280   0.54758   0.04648   0.00000  Uiso   1.00
C131   C     0.19304   0.49190   0.12986   0.00000  Uiso   1.00
C132   C     0.09731   0.57530   0.01905   0.00000  Uiso   1.00
C133   C     0.05701   0.55989   0.04653   0.00000  Uiso   1.00
C134   C     0.15280   0.54758   0.10238   0.00000  Uiso   1.00
C135   C     0.09730   0.57529   0.12981   0.00000  Uiso   1.00
C136   C     0.05696   0.50810   0.01899   0.00000  Uiso   1.00
C137   C     0.09720   0.45242   0.04648   0.00000  Uiso   1.00
C138   C     0.05701   0.55989   0.10233   0.00000  Uiso   1.00
C139   C     0.05696   0.50810   0.12986   0.00000  Uiso   1.00
C140   C     0.15269   0.42470   0.01905   0.00000  Uiso   1.00
C141   C     0.19299   0.44011   0.04653   0.00000  Uiso   1.00
C142   C     0.09720   0.45242   0.10238   0.00000  Uiso   1.00
C143   C     0.15269   0.42470   0.12981   0.00000  Uiso   1.00
C144   C     0.19299   0.44011   0.10233   0.00000  Uiso   1.00
C145   C     0.44304   0.24190   0.01899   0.00000  Uiso   1.00
C146   C     0.40280   0.29758   0.04648   0.00000  Uiso   1.00
C147   C     0.44304   0.24190   0.12986   0.00000  Uiso   1.00
C148   C     0.34731   0.32529   0.01905   0.00000  Uiso   1.00
C149   C     0.30701   0.30989   0.04653   0.00000  Uiso   1.00
C150   C     0.40280   0.29758   0.10238   0.00000  Uiso   1.00
C151   C     0.34731   0.32529   0.12981   0.00000  Uiso   1.00
C152   C     0.30696   0.25810   0.01899   0.00000  Uiso   1.00
C153   C     0.34720   0.20242   0.04648   0.00000  Uiso   1.00
C154   C     0.30701   0.30989   0.10233   0.00000  Uiso   1.00
C155   C     0.30696   0.25810   0.12986   0.00000  Uiso   1.00
C156   C     0.40270   0.17470   0.01905   0.00000  Uiso   1.00
C157   C     0.44299   0.19011   0.04653   0.00000  Uiso   1.00
C158   C     0.34720   0.20242   0.10238   0.00000  Uiso   1.00
C159   C     0.40270   0.17470   0.12981   0.00000  Uiso   1.00
C160   C     0.44299   0.19011   0.10233   0.00000  Uiso   1.00
C161   C     0.69304   0.99190   0.01899   0.00000  Uiso   1.00
C162   C     0.65280   0.04758   0.04648   0.00000  Uiso   1.00
C163   C     0.69304   0.99190   0.12986   0.00000  Uiso   1.00
C164   C     0.59731   0.07529   0.01905   0.00000  Uiso   1.00
C165   C     0.55702   0.05989   0.04653   0.00000  Uiso   1.00
C166   C     0.65280   0.04758   0.10238   0.00000  Uiso   1.00
C167   C     0.59731   0.07529   0.12981   0.00000  Uiso   1.00
C168   C     0.55696   0.00810   0.01899   0.00000  Uiso   1.00
C169   C     0.59720   0.95242   0.04648   0.00000  Uiso   1.00
C170   C     0.55701   0.05989   0.10233   0.00000  Uiso   1.00
C171   C     0.55696   0.00809   0.12986   0.00000  Uiso   1.00
C172   C     0.65270   0.92470   0.01905   0.00000  Uiso   1.00
C173   C     0.69299   0.94011   0.04653   0.00000  Uiso   1.00
C174   C     0.59720   0.95242   0.10238   0.00000  Uiso   1.00
C175   C     0.65270   0.92470   0.12981   0.00000  Uiso   1.00
C176   C     0.69299   0.94011   0.10233   0.00000  Uiso   1.00
C177   C     0.94304   0.74190   0.01899   0.00000  Uiso   1.00
C178   C     0.90280   0.79758   0.04648   0.00000  Uiso   1.00
C179   C     0.94304   0.74190   0.12986   0.00000  Uiso   1.00
C180   C     0.84731   0.82529   0.01905   0.00000  Uiso   1.00
C181   C     0.80702   0.80989   0.04653   0.00000  Uiso   1.00
C182   C     0.90280   0.79758   0.10238   0.00000  Uiso   1.00
C183   C     0.84731   0.82529   0.12981   0.00000  Uiso   1.00
C184   C     0.80696   0.75810   0.01900   0.00000  Uiso   1.00
C185   C     0.84720   0.70242   0.04648   0.00000  Uiso   1.00
C186   C     0.80702   0.80989   0.10233   0.00000  Uiso   1.00
C187   C     0.80696   0.75809   0.12986   0.00000  Uiso   1.00
C188   C     0.90270   0.67470   0.01905   0.00000  Uiso   1.00
C189   C     0.94299   0.69011   0.04653   0.00000  Uiso   1.00
C190   C     0.84720   0.70242   0.10238   0.00000  Uiso   1.00
C191   C     0.90270   0.67470   0.12981   0.00000  Uiso   1.00
C192   C     0.94299   0.69011   0.10233   0.00000  Uiso   1.00
C193   C     0.19304   0.74190   0.01899   0.00000  Uiso   1.00
C194   C     0.15280   0.79758   0.04648   0.00000  Uiso   1.00
C195   C     0.19304   0.74190   0.12986   0.00000  Uiso   1.00
C196   C     0.09730   0.82529   0.01905   0.00000  Uiso   1.00
C197   C     0.05701   0.80989   0.04653   0.00000  Uiso   1.00
C198   C     0.15280   0.79758   0.10238   0.00000  Uiso   1.00
C199   C     0.09731   0.82530   0.12981   0.00000  Uiso   1.00
C200   C     0.05696   0.75810   0.01899   0.00000  Uiso   1.00
C201   C     0.09720   0.70242   0.04648   0.00000  Uiso   1.00
C202   C     0.05701   0.80989   0.10233   0.00000  Uiso   1.00
C203   C     0.05696   0.75810   0.12986   0.00000  Uiso   1.00
C204   C     0.15269   0.67470   0.01905   0.00000  Uiso   1.00
C205   C     0.19298   0.69011   0.04653   0.00000  Uiso   1.00
C206   C     0.09720   0.70242   0.10238   0.00000  Uiso   1.00
C207   C     0.15269   0.67470   0.12981   0.00000  Uiso   1.00
C208   C     0.19299   0.69011   0.10233   0.00000  Uiso   1.00
C209   C     0.44304   0.49190   0.01899   0.00000  Uiso   1.00
C210   C     0.40280   0.54758   0.04648   0.00000  Uiso   1.00
C211   C     0.44304   0.49190   0.12986   0.00000  Uiso   1.00
C212   C     0.34730   0.57529   0.01905   0.00000  Uiso   1.00
C213   C     0.30701   0.55989   0.04653   0.00000  Uiso   1.00
C214   C     0.40280   0.54758   0.10238   0.00000  Uiso   1.00
C215   C     0.34731   0.57529   0.12981   0.00000  Uiso   1.00
C216   C     0.30696   0.50810   0.01899   0.00000  Uiso   1.00
C217   C     0.34720   0.45242   0.04648   0.00000  Uiso   1.00
C218   C     0.30701   0.55989   0.10233   0.00000  Uiso   1.00
C219   C     0.30696   0.50810   0.12986   0.00000  Uiso   1.00
C220   C     0.40270   0.42470   0.01905   0.00000  Uiso   1.00
C221   C     0.44299   0.44011   0.04653   0.00000  Uiso   1.00
C222   C     0.34720   0.45242   0.10238   0.00000  Uiso   1.00
C223   C     0.40270   0.42470   0.12981   0.00000  Uiso   1.00
C224   C     0.44299   0.44011   0.10233   0.00000  Uiso   1.00
C225   C     0.69304   0.24190   0.01899   0.00000  Uiso   1.00
C226   C     0.65280   0.29758   0.04648   0.00000  Uiso   1.00
C227   C     0.69304   0.24190   0.12986   0.00000  Uiso   1.00
C228   C     0.59731   0.32529   0.01905   0.00000  Uiso   1.00
C229   C     0.55702   0.30989   0.04653   0.00000  Uiso   1.00
C230   C     0.65280   0.29758   0.10238   0.00000  Uiso   1.00
C231   C     0.59731   0.32529   0.12981   0.00000  Uiso   1.00
C232   C     0.55696   0.25810   0.01899   0.00000  Uiso   1.00
C233   C     0.59720   0.20242   0.04648   0.00000  Uiso   1.00
C234   C     0.55701   0.30989   0.10233   0.00000  Uiso   1.00
C235   C     0.55696   0.25810   0.12986   0.00000  Uiso   1.00
C236   C     0.65270   0.17470   0.01905   0.00000  Uiso   1.00
C237   C     0.69299   0.19011   0.04653   0.00000  Uiso   1.00
C238   C     0.59720   0.20242   0.10238   0.00000  Uiso   1.00
C239   C     0.65270   0.17470   0.12981   0.00000  Uiso   1.00
C240   C     0.69299   0.19011   0.10233   0.00000  Uiso   1.00
C241   C     0.94304   0.99190   0.01899   0.00000  Uiso   1.00
C242   C     0.90280   0.04758   0.04648   0.00000  Uiso   1.00
C243   C     0.94304   0.99190   0.12986   0.00000  Uiso   1.00
C244   C     0.84731   0.07529   0.01905   0.00000  Uiso   1.00
C245   C     0.80701   0.05989   0.04653   0.00000  Uiso   1.00
C246   C     0.90280   0.04758   0.10238   0.00000  Uiso   1.00
C247   C     0.84731   0.07529   0.12981   0.00000  Uiso   1.00
C248   C     0.80696   0.00810   0.01899   0.00000  Uiso   1.00
C249   C     0.84720   0.95242   0.04648   0.00000  Uiso   1.00
C250   C     0.80702   0.05989   0.10233   0.00000  Uiso   1.00
C251   C     0.80696   0.00810   0.12986   0.00000  Uiso   1.00
C252   C     0.90270   0.92470   0.01905   0.00000  Uiso   1.00
C253   C     0.94299   0.94011   0.04653   0.00000  Uiso   1.00
C254   C     0.84720   0.95242   0.10238   0.00000  Uiso   1.00
C255   C     0.90269   0.92470   0.12981   0.00000  Uiso   1.00
C256   C     0.94299   0.94011   0.10233   0.00000  Uiso   1.00
C257   C     0.19304   0.99190   0.18566   0.00000  Uiso   1.00
C258   C     0.15280   0.04758   0.21314   0.00000  Uiso   1.00
C259   C     0.19304   0.99190   0.29653   0.00000  Uiso   1.00
C260   C     0.09731   0.07530   0.18572   0.00000  Uiso   1.00
C261   C     0.05701   0.05989   0.21320   0.00000  Uiso   1.00
C262   C     0.15280   0.04758   0.26905   0.00000  Uiso   1.00
C263   C     0.09731   0.07530   0.29648   0.00000  Uiso   1.00
C264   C     0.05696   0.00810   0.18566   0.00000  Uiso   1.00
C265   C     0.09720   0.95242   0.21314   0.00000  Uiso   1.00
C266   C     0.05701   0.05989   0.26900   0.00000  Uiso   1.00
C267   C     0.05696   0.00810   0.29653   0.00000  Uiso   1.00
C268   C     0.15269   0.92470   0.18572   0.00000  Uiso   1.00
C269   C     0.19299   0.94011   0.21320   0.00000  Uiso   1.00
C270   C     0.09720   0.95242   0.26905   0.00000  Uiso   1.00
C271   C     0.15269   0.92470   0.29648   0.00000  Uiso   1.00
C272   C     0.19299   0.94011   0.26900   0.00000  Uiso   1.00
C273   C     0.44304   0.74190   0.18566   0.00000  Uiso   1.00
C274   C     0.40280   0.79758   0.21314   0.00000  Uiso   1.00
C275   C     0.44304   0.74190   0.29653   0.00000  Uiso   1.00
C276   C     0.34731   0.82530   0.18572   0.00000  Uiso   1.00
C277   C     0.30701   0.80989   0.21320   0.00000  Uiso   1.00
C278   C     0.40280   0.79758   0.26905   0.00000  Uiso   1.00
C279   C     0.34731   0.82529   0.29648   0.00000  Uiso   1.00
C280   C     0.30696   0.75810   0.18566   0.00000  Uiso   1.00
C281   C     0.34720   0.70242   0.21314   0.00000  Uiso   1.00
C282   C     0.30702   0.80989   0.26900   0.00000  Uiso   1.00
C283   C     0.30696   0.75810   0.29653   0.00000  Uiso   1.00
C284   C     0.40270   0.67470   0.18572   0.00000  Uiso   1.00
C285   C     0.44299   0.69011   0.21320   0.00000  Uiso   1.00
C286   C     0.34720   0.70242   0.26905   0.00000  Uiso   1.00
C287   C     0.40270   0.67470   0.29648   0.00000  Uiso   1.00
C288   C     0.44299   0.69011   0.26900   0.00000  Uiso   1.00
C289   C     0.69304   0.49190   0.18566   0.00000  Uiso   1.00
C290   C     0.65280   0.54758   0.21314   0.00000  Uiso   1.00
C291   C     0.69304   0.49190   0.29653   0.00000  Uiso   1.00
C292   C     0.59731   0.57529   0.18572   0.00000  Uiso   1.00
C293   C     0.55702   0.55989   0.21320   0.00000  Uiso   1.00
C294   C     0.65280   0.54758   0.26905   0.00000  Uiso   1.00
C295   C     0.59731   0.57529   0.29648   0.00000  Uiso   1.00
C296   C     0.55696   0.50810   0.18566   0.00000  Uiso   1.00
C297   C     0.59720   0.45242   0.21314   0.00000  Uiso   1.00
C298   C     0.55702   0.55989   0.26900   0.00000  Uiso   1.00
C299   C     0.55696   0.50810   0.29653   0.00000  Uiso   1.00
C300   C     0.65270   0.42470   0.18572   0.00000  Uiso   1.00
C301   C     0.69299   0.44011   0.21320   0.00000  Uiso   1.00
C302   C     0.59720   0.45242   0.26905   0.00000  Uiso   1.00
C303   C     0.65270   0.42470   0.29648   0.00000  Uiso   1.00
C304   C     0.69299   0.44011   0.26900   0.00000  Uiso   1.00
C305   C     0.94304   0.24190   0.18566   0.00000  Uiso   1.00
C306   C     0.90280   0.29758   0.21314   0.00000  Uiso   1.00
C307   C     0.94304   0.24190   0.29653   0.00000  Uiso   1.00
C308   C     0.84731   0.32529   0.18572   0.00000  Uiso   1.00
C309   C     0.80702   0.30989   0.21320   0.00000  Uiso   1.00
C310   C     0.90280   0.29758   0.26905   0.00000  Uiso   1.00
C311   C     0.84731   0.32529   0.29648   0.00000  Uiso   1.00
C312   C     0.80696   0.25810   0.18566   0.00000  Uiso   1.00
C313   C     0.84720   0.20242   0.21314   0.00000  Uiso   1.00
C314   C     0.80702   0.30989   0.26900   0.00000  Uiso   1.00
C315   C     0.80696   0.25810   0.29653   0.00000  Uiso   1.00
C316   C     0.90270   0.17470   0.18572   0.00000  Uiso   1.00
C317   C     0.94299   0.19011   0.21320   0.00000  Uiso   1.00
C318   C     0.84720   0.20242   0.26905   0.00000  Uiso   1.00
C319   C     0.90270   0.17470   0.29648   0.00000  Uiso   1.00
C320   C     0.94299   0.19011   0.26900   0.00000  Uiso   1.00
C321   C     0.19304   0.24190   0.18566   0.00000  Uiso   1.00
C322   C     0.15280   0.29758   0.21314   0.00000  Uiso   1.00
C323   C     0.19304   0.24190   0.29653   0.00000  Uiso   1.00
C324   C     0.09731   0.32530   0.18572   0.00000  Uiso   1.00
C325   C     0.05701   0.30989   0.21320   0.00000  Uiso   1.00
C326   C     0.15280   0.29758   0.26905   0.00000  Uiso   1.00
C327   C     0.09731   0.32529   0.29648   0.00000  Uiso   1.00
C328   C     0.05696   0.25810   0.18566   0.00000  Uiso   1.00
C329   C     0.09720   0.20242   0.21314   0.00000  Uiso   1.00
C330   C     0.05701   0.30989   0.26900   0.00000  Uiso   1.00
C331   C     0.05696   0.25810   0.29653   0.00000  Uiso   1.00
C332   C     0.15269   0.17470   0.18572   0.00000  Uiso   1.00
C333   C     0.19299   0.19011   0.21320   0.00000  Uiso   1.00
C334   C     0.09720   0.20242   0.26905   0.00000  Uiso   1.00
C335   C     0.15269   0.17470   0.29648   0.00000  Uiso   1.00
C336   C     0.19299   0.19011   0.26900   0.00000  Uiso   1.00
C337   C     0.44304   0.99190   0.18566   0.00000  Uiso   1.00
C338   C     0.40280   0.04758   0.21314   0.00000  Uiso   1.00
C339   C     0.44304   0.99190   0.29653   0.00000  Uiso   1.00
C340   C     0.34731   0.07529   0.18572   0.00000  Uiso   1.00
C341   C     0.30701   0.05989   0.21320   0.00000  Uiso   1.00
C342   C     0.40280   0.04758   0.26905   0.00000  Uiso   1.00
C343   C     0.34731   0.07529   0.29648   0.00000  Uiso   1.00
C344   C     0.30696   0.00810   0.18566   0.00000  Uiso   1.00
C345   C     0.34720   0.95242   0.21314   0.00000  Uiso   1.00
C346   C     0.30701   0.05989   0.26900   0.00000  Uiso   1.00
C347   C     0.30696   0.00810   0.29653   0.00000  Uiso   1.00
C348   C     0.40270   0.92470   0.18572   0.00000  Uiso   1.00
C349   C     0.44299   0.94011   0.21320   0.00000  Uiso   1.00
C350   C     0.34720   0.95242   0.26905   0.00000  Uiso   1.00
C351   C     0.40270   0.92470   0.29648   0.00000  Uiso   1.00
C352   C     0.44299   0.94011   0.26900   0.00000  Uiso   1.00
C353   C     0.69304   0.74190   0.18566   0.00000  Uiso   1.00
C354   C     0.65280   0.79758   0.21314   0.00000  Uiso   1.00
C355   C     0.69304   0.74190   0.29653   0.00000  Uiso   1.00
C356   C     0.59731   0.82529   0.18572   0.00000  Uiso   1.00
C357   C     0.55702   0.80989   0.21320   0.00000  Uiso   1.00
C358   C     0.65280   0.79758   0.26905   0.00000  Uiso   1.00
C359   C     0.59731   0.82529   0.29648   0.00000  Uiso   1.00
C360   C     0.55696   0.75810   0.18566   0.00000  Uiso   1.00
C361   C     0.59720   0.70242   0.21314   0.00000  Uiso   1.00
C362   C     0.55701   0.80989   0.26900   0.00000  Uiso   1.00
C363   C     0.55696   0.75810   0.29653   0.00000  Uiso   1.00
C364   C     0.65270   0.67470   0.18572   0.00000  Uiso   1.00
C365   C     0.69299   0.69011   0.21320   0.00000  Uiso   1.00
C366   C     0.59720   0.70242   0.26905   0.00000  Uiso   1.00
C367   C     0.65270   0.67470   0.29648   0.00000  Uiso   1.00
C368   C     0.69299   0.69011   0.26900   0.00000  Uiso   1.00
C369   C     0.94304   0.49190   0.18566   0.00000  Uiso   1.00
C370   C     0.90280   0.54758   0.21314   0.00000  Uiso   1.00
C371   C     0.94304   0.49190   0.29653   0.00000  Uiso   1.00
C372   C     0.84731   0.57529   0.18572   0.00000  Uiso   1.00
C373   C     0.80702   0.55989   0.21320   0.00000  Uiso   1.00
C374   C     0.90280   0.54758   0.26905   0.00000  Uiso   1.00
C375   C     0.84731   0.57529   0.29648   0.00000  Uiso   1.00
C376   C     0.80696   0.50810   0.18566   0.00000  Uiso   1.00
C377   C     0.84720   0.45242   0.21314   0.00000  Uiso   1.00
C378   C     0.80702   0.55989   0.26900   0.00000  Uiso   1.00
C379   C     0.80696   0.50809   0.29653   0.00000  Uiso   1.00
C380   C     0.90270   0.42470   0.18572   0.00000  Uiso   1.00
C381   C     0.94299   0.44011   0.21320   0.00000  Uiso   1.00
C382   C     0.84720   0.45242   0.26905   0.00000  Uiso   1.00
C383   C     0.90270   0.42470   0.29648   0.00000  Uiso   1.00
C384   C     0.94299   0.44011   0.26900   0.00000  Uiso   1.00
C385   C     0.19304   0.49190   0.18566   0.00000  Uiso   1.00
C386   C     0.15280   0.54758   0.21314   0.00000  Uiso   1.00
C387   C     0.19304   0.49190   0.29653   0.00000  Uiso   1.00
C388   C     0.09731   0.57530   0.18572   0.00000  Uiso   1.00
C389   C     0.05701   0.55989   0.21320   0.00000  Uiso   1.00
C390   C     0.15280   0.54758   0.26905   0.00000  Uiso   1.00
C391   C     0.09731   0.57529   0.29648   0.00000  Uiso   1.00
C392   C     0.05696   0.50810   0.18566   0.00000  Uiso   1.00
C393   C     0.09720   0.45242   0.21314   0.00000  Uiso   1.00
C394   C     0.05701   0.55989   0.26900   0.00000  Uiso   1.00
C395   C     0.05696   0.50810   0.29653   0.00000  Uiso   1.00
C396   C     0.15270   0.42470   0.18572   0.00000  Uiso   1.00
C397   C     0.19299   0.44011   0.21320   0.00000  Uiso   1.00
C398   C     0.09720   0.45242   0.26905   0.00000  Uiso   1.00
C399   C     0.15269   0.42470   0.29648   0.00000  Uiso   1.00
C400   C     0.19299   0.44011   0.26900   0.00000  Uiso   1.00
C401   C     0.44304   0.24190   0.18566   0.00000  Uiso   1.00
C402   C     0.40280   0.29758   0.21314   0.00000  Uiso   1.00
C403   C     0.44304   0.24190   0.29653   0.00000  Uiso   1.00
C404   C     0.34731   0.32529   0.18572   0.00000  Uiso   1.00
C405   C     0.30701   0.30989   0.21320   0.00000  Uiso   1.00
C406   C     0.40280   0.29758   0.26905   0.00000  Uiso   1.00
C407   C     0.34731   0.32529   0.29648   0.00000  Uiso   1.00
C408   C     0.30696   0.25810   0.18566   0.00000  Uiso   1.00
C409   C     0.34720   0.20242   0.21314   0.00000  Uiso   1.00
C410   C     0.30701   0.30989   0.26900   0.00000  Uiso   1.00
C411   C     0.30696   0.25810   0.29653   0.00000  Uiso   1.00
C412   C     0.40270   0.17470   0.18572   0.00000  Uiso   1.00
C413   C     0.44299   0.19011   0.21320   0.00000  Uiso   1.00
C414   C     0.34720   0.20242   0.26905   0.00000  Uiso   1.00
C415   C     0.40270   0.17470   0.29648   0.00000  Uiso   1.00
C416   C     0.44299   0.19011   0.26900   0.00000  Uiso   1.00
C417   C     0.69304   0.99190   0.18566   0.00000  Uiso   1.00
C418   C     0.65280   0.04758   0.21314   0.00000  Uiso   1.00
C419   C     0.69304   0.99190   0.29653   0.00000  Uiso   1.00
C420   C     0.59731   0.07529   0.18572   0.00000  Uiso   1.00
C421   C     0.55702   0.05989   0.21320   0.00000  Uiso   1.00
C422   C     0.65280   0.04758   0.26905   0.00000  Uiso   1.00
C423   C     0.59731   0.07529   0.29648   0.00000  Uiso   1.00
C424   C     0.55696   0.00810   0.18566   0.00000  Uiso   1.00
C425   C     0.59720   0.95242   0.21314   0.00000  Uiso   1.00
C426   C     0.55702   0.05989   0.26900   0.00000  Uiso   1.00
C427   C     0.55696   0.00810   0.29653   0.00000  Uiso   1.00
C428   C     0.65270   0.92470   0.18572   0.00000  Uiso   1.00
C429   C     0.69299   0.94011   0.21320   0.00000  Uiso   1.00
C430   C     0.59720   0.95242   0.26905   0.00000  Uiso   1.00
C431   C     0.65269   0.92470   0.29648   0.00000  Uiso   1.00
C432   C     0.69299   0.94011   0.26900   0.00000  Uiso   1.00
C433   C     0.94304   0.74190   0.18566   0.00000  Uiso   1.00
C434   C     0.90280   0.79758   0.21314   0.00000  Uiso   1.00
C435   C     0.94304   0.74190   0.29653   0.00000  Uiso   1.00
C436   C     0.84731   0.82529   0.18572   0.00000  Uiso   1.00
C437   C     0.80702   0.80989   0.21320   0.00000  Uiso   1.00
C438   C     0.90280   0.79758   0.26905   0.00000  Uiso   1.00
C439   C     0.84731   0.82529   0.29648   0.00000  Uiso   1.00
C440   C     0.80696   0.75810   0.18566   0.00000  Uiso   1.00
C441   C     0.84720   0.70242   0.21314   0.00000  Uiso   1.00
C442   C     0.80702   0.80989   0.26900   0.00000  Uiso   1.00
C443   C     0.80697   0.75809   0.29653   0.00000  Uiso   1.00
C444   C     0.90270   0.67470   0.18572   0.00000  Uiso   1.00
C445   C     0.94299   0.69011   0.21320   0.00000  Uiso   1.00
C446   C     0.84720   0.70242   0.26905   0.00000  Uiso   1.00
C447   C     0.90270   0.67470   0.29648   0.00000  Uiso   1.00
C448   C     0.94299   0.69011   0.26900   0.00000  Uiso   1.00
C449   C     0.19304   0.74190   0.18566   0.00000  Uiso   1.00
C450   C     0.15280   0.79758   0.21314   0.00000  Uiso   1.00
C451   C     0.19304   0.74190   0.29653   0.00000  Uiso   1.00
C452   C     0.09730   0.82530   0.18572   0.00000  Uiso   1.00
C453   C     0.05701   0.80989   0.21320   0.00000  Uiso   1.00
C454   C     0.15280   0.79758   0.26905   0.00000  Uiso   1.00
C455   C     0.09731   0.82529   0.29648   0.00000  Uiso   1.00
C456   C     0.05696   0.75810   0.18566   0.00000  Uiso   1.00
C457   C     0.09720   0.70242   0.21314   0.00000  Uiso   1.00
C458   C     0.05701   0.80989   0.26900   0.00000  Uiso   1.00
C459   C     0.05696   0.75810   0.29653   0.00000  Uiso   1.00
C460   C     0.15269   0.67470   0.18572   0.00000  Uiso   1.00
C461   C     0.19298   0.69011   0.21320   0.00000  Uiso   1.00
C462   C     0.09720   0.70242   0.26905   0.00000  Uiso   1.00
C463   C     0.15269   0.67470   0.29648   0.00000  Uiso   1.00
C464   C     0.19299   0.69011   0.26900   0.00000  Uiso   1.00
C465   C     0.44304   0.49190   0.18566   0.00000  Uiso   1.00
C466   C     0.40280   0.54758   0.21314   0.00000  Uiso   1.00
C467   C     0.44304   0.49190   0.29653   0.00000  Uiso   1.00
C468   C     0.34730   0.57530   0.18572   0.00000  Uiso   1.00
C469   C     0.30701   0.55989   0.21320   0.00000  Uiso   1.00
C470   C     0.40280   0.54758   0.26905   0.00000  Uiso   1.00
C471   C     0.34731   0.57529   0.29648   0.00000  Uiso   1.00
C472   C     0.30696   0.50810   0.18566   0.00000  Uiso   1.00
C473   C     0.34720   0.45242   0.21314   0.00000  Uiso   1.00
C474   C     0.30701   0.55989   0.26900   0.00000  Uiso   1.00
C475   C     0.30696   0.50810   0.29653   0.00000  Uiso   1.00
C476   C     0.40270   0.42470   0.18572   0.00000  Uiso   1.00
C477   C     0.44299   0.44011   0.21320   0.00000  Uiso   1.00
C478   C     0.34720   0.45242   0.26905   0.00000  Uiso   1.00
C479   C     0.40270   0.42470   0.29648   0.00000  Uiso   1.00
C480   C     0.44299   0.44011   0.26900   0.00000  Uiso   1.00
C481   C     0.69304   0.24190   0.18566   0.00000  Uiso   1.00
C482   C     0.65280   0.29758   0.21314   0.00000  Uiso   1.00
C483   C     0.69304   0.24190   0.29653   0.00000  Uiso   1.00
C484   C     0.59731   0.32529   0.18572   0.00000  Uiso   1.00
C485   C     0.55701   0.30989   0.21320   0.00000  Uiso   1.00
C486   C     0.65280   0.29758   0.26905   0.00000  Uiso   1.00
C487   C     0.59731   0.32529   0.29648   0.00000  Uiso   1.00
C488   C     0.55696   0.25810   0.18566   0.00000  Uiso   1.00
C489   C     0.59720   0.20242   0.21314   0.00000  Uiso   1.00
C490   C     0.55702   0.30989   0.26900   0.00000  Uiso   1.00
C491   C     0.55696   0.25810   0.29653   0.00000  Uiso   1.00
C492   C     0.65270   0.17470   0.18572   0.00000  Uiso   1.00
C493   C     0.69299   0.19011   0.21320   0.00000  Uiso   1.00
C494   C     0.59720   0.20242   0.26905   0.00000  Uiso   1.00
C495   C     0.65270   0.17470   0.29648   0.00000  Uiso   1.00
C496   C     0.69299   0.19011   0.26900   0.00000  Uiso   1.00
C497   C     0.94304   0.99190   0.18566   0.00000  Uiso   1.00
C498   C     0.90280   0.04758   0.21314   0.00000  Uiso   1.00
C499   C     0.94304   0.99190   0.29653   0.00000  Uiso   1.00
C500   C     0.84731   0.07529   0.18572   0.00000  Uiso   1.00
C501   C     0.80701   0.05989   0.21320   0.00000  Uiso   1.00
C502   C     0.90280   0.04758   0.26905   0.00000  Uiso   1.00
C503   C     0.84731   0.07529   0.29648   0.00000  Uiso   1.00
C504   C     0.80697   0.00809   0.18566   0.00000  Uiso   1.00
C505   C     0.84720   0.95242   0.21314   0.00000  Uiso   1.00
C506   C     0.80702   0.05989   0.26900   0.00000  Uiso   1.00
C507   C     0.80696   0.00809   0.29653   0.00000  Uiso   1.00
C508   C     0.90269   0.92470   0.18572   0.00000  Uiso   1.00
C509   C     0.94299   0.94011   0.21320   0.00000  Uiso   1.00
C510   C     0.84720   0.95242   0.26905   0.00000  Uiso   1.00
C511   C     0.90270   0.92470   0.29648   0.00000  Uiso   1.00
C512   C     0.94299   0.94011   0.26900   0.00000  Uiso   1.00
C513   C     0.19304   0.99190   0.35233   0.00000  Uiso   1.00
C514   C     0.15280   0.04758   0.37981   0.00000  Uiso   1.00
C515   C     0.19304   0.99190   0.46320   0.00000  Uiso   1.00
C516   C     0.09731   0.07530   0.35238   0.00000  Uiso   1.00
C517   C     0.05701   0.05989   0.37986   0.00000  Uiso   1.00
C518   C     0.15280   0.04758   0.43571   0.00000  Uiso   1.00
C519   C     0.09731   0.07530   0.46314   0.00000  Uiso   1.00
C520   C     0.05696   0.00810   0.35233   0.00000  Uiso   1.00
C521   C     0.09720   0.95242   0.37981   0.00000  Uiso   1.00
C522   C     0.05701   0.05989   0.43566   0.00000  Uiso   1.00
C523   C     0.05696   0.00810   0.46320   0.00000  Uiso   1.00
C524   C     0.15269   0.92470   0.35238   0.00000  Uiso   1.00
C525   C     0.19299   0.94011   0.37986   0.00000  Uiso   1.00
C526   C     0.09720   0.95242   0.43571   0.00000  Uiso   1.00
C527   C     0.15269   0.92470   0.46314   0.00000  Uiso   1.00
C528   C     0.19299   0.94011   0.43566   0.00000  Uiso   1.00
C529   C     0.44304   0.74190   0.35233   0.00000  Uiso   1.00
C530   C     0.40280   0.79758   0.37981   0.00000  Uiso   1.00
C531   C     0.44304   0.74190   0.46320   0.00000  Uiso   1.00
C532   C     0.34731   0.82529   0.35238   0.00000  Uiso   1.00
C533   C     0.30701   0.80989   0.37986   0.00000  Uiso   1.00
C534   C     0.40280   0.79758   0.43572   0.00000  Uiso   1.00
C535   C     0.34731   0.82529   0.46314   0.00000  Uiso   1.00
C536   C     0.30696   0.75810   0.35233   0.00000  Uiso   1.00
C537   C     0.34720   0.70242   0.37981   0.00000  Uiso   1.00
C538   C     0.30701   0.80989   0.43566   0.00000  Uiso   1.00
C539   C     0.30696   0.75810   0.46320   0.00000  Uiso   1.00
C540   C     0.40270   0.67470   0.35238   0.00000  Uiso   1.00
C541   C     0.44299   0.69011   0.37986   0.00000  Uiso   1.00
C542   C     0.34720   0.70242   0.43572   0.00000  Uiso   1.00
C543   C     0.40270   0.67470   0.46314   0.00000  Uiso   1.00
C544   C     0.44299   0.69011   0.43566   0.00000  Uiso   1.00
C545   C     0.69304   0.49190   0.35233   0.00000  Uiso   1.00
C546   C     0.65280   0.54758   0.37981   0.00000  Uiso   1.00
C547   C     0.69304   0.49190   0.46320   0.00000  Uiso   1.00
C548   C     0.59731   0.57529   0.35238   0.00000  Uiso   1.00
C549   C     0.55702   0.55989   0.37986   0.00000  Uiso   1.00
C550   C     0.65280   0.54758   0.43572   0.00000  Uiso   1.00
C551   C     0.59731   0.57529   0.46314   0.00000  Uiso   1.00
C552   C     0.55696   0.50810   0.35233   0.00000  Uiso   1.00
C553   C     0.59720   0.45242   0.37981   0.00000  Uiso   1.00
C554   C     0.55702   0.55989   0.43566   0.00000  Uiso   1.00
C555   C     0.55696   0.50810   0.46320   0.00000  Uiso   1.00
C556   C     0.65270   0.42470   0.35238   0.00000  Uiso   1.00
C557   C     0.69299   0.44011   0.37986   0.00000  Uiso   1.00
C558   C     0.59720   0.45242   0.43572   0.00000  Uiso   1.00
C559   C     0.65270   0.42470   0.46314   0.00000  Uiso   1.00
C560   C     0.69299   0.44011   0.43566   0.00000  Uiso   1.00
C561   C     0.94304   0.24190   0.35233   0.00000  Uiso   1.00
C562   C     0.90280   0.29758   0.37981   0.00000  Uiso   1.00
C563   C     0.94304   0.24190   0.46320   0.00000  Uiso   1.00
C564   C     0.84731   0.32529   0.35238   0.00000  Uiso   1.00
C565   C     0.80702   0.30989   0.37986   0.00000  Uiso   1.00
C566   C     0.90280   0.29758   0.43572   0.00000  Uiso   1.00
C567   C     0.84731   0.32529   0.46314   0.00000  Uiso   1.00
C568   C     0.80696   0.25809   0.35233   0.00000  Uiso   1.00
C569   C     0.84720   0.20242   0.37981   0.00000  Uiso   1.00
C570   C     0.80702   0.30989   0.43566   0.00000  Uiso   1.00
C571   C     0.80696   0.25809   0.46320   0.00000  Uiso   1.00
C572   C     0.90270   0.17470   0.35238   0.00000  Uiso   1.00
C573   C     0.94299   0.19011   0.37986   0.00000  Uiso   1.00
C574   C     0.84720   0.20242   0.43571   0.00000  Uiso   1.00
C575   C     0.90270   0.17470   0.46314   0.00000  Uiso   1.00
C576   C     0.94299   0.19011   0.43566   0.00000  Uiso   1.00
C577   C     0.19304   0.24190   0.35233   0.00000  Uiso   1.00
C578   C     0.15280   0.29758   0.37981   0.00000  Uiso   1.00
C579   C     0.19304   0.24190   0.46320   0.00000  Uiso   1.00
C580   C     0.09730   0.32530   0.35238   0.00000  Uiso   1.00
C581   C     0.05701   0.30989   0.37986   0.00000  Uiso   1.00
C582   C     0.15280   0.29758   0.43572   0.00000  Uiso   1.00
C583   C     0.09731   0.32530   0.46314   0.00000  Uiso   1.00
C584   C     0.05696   0.25810   0.35233   0.00000  Uiso   1.00
C585   C     0.09720   0.20242   0.37981   0.00000  Uiso   1.00
C586   C     0.05701   0.30989   0.43566   0.00000  Uiso   1.00
C587   C     0.05696   0.25810   0.46320   0.00000  Uiso   1.00
C588   C     0.15269   0.17470   0.35238   0.00000  Uiso   1.00
C589   C     0.19299   0.19011   0.37986   0.00000  Uiso   1.00
C590   C     0.09720   0.20242   0.43571   0.00000  Uiso   1.00
C591   C     0.15270   0.17470   0.46314   0.00000  Uiso   1.00
C592   C     0.19299   0.19011   0.43566   0.00000  Uiso   1.00
C593   C     0.44304   0.99190   0.35233   0.00000  Uiso   1.00
C594   C     0.40280   0.04758   0.37981   0.00000  Uiso   1.00
C595   C     0.44304   0.99190   0.46320   0.00000  Uiso   1.00
C596   C     0.34731   0.07529   0.35238   0.00000  Uiso   1.00
C597   C     0.30702   0.05989   0.37986   0.00000  Uiso   1.00
C598   C     0.40280   0.04758   0.43571   0.00000  Uiso   1.00
C599   C     0.34731   0.07529   0.46314   0.00000  Uiso   1.00
C600   C     0.30696   0.00810   0.35233   0.00000  Uiso   1.00
C601   C     0.34720   0.95242   0.37981   0.00000  Uiso   1.00
C602   C     0.30701   0.05989   0.43566   0.00000  Uiso   1.00
C603   C     0.30696   0.00810   0.46320   0.00000  Uiso   1.00
C604   C     0.40270   0.92470   0.35238   0.00000  Uiso   1.00
C605   C     0.44299   0.94011   0.37986   0.00000  Uiso   1.00
C606   C     0.34720   0.95242   0.43571   0.00000  Uiso   1.00
C607   C     0.40270   0.92470   0.46314   0.00000  Uiso   1.00
C608   C     0.44299   0.94011   0.43566   0.00000  Uiso   1.00
C609   C     0.69304   0.74190   0.35233   0.00000  Uiso   1.00
C610   C     0.65280   0.79758   0.37981   0.00000  Uiso   1.00
C611   C     0.69304   0.74190   0.46320   0.00000  Uiso   1.00
C612   C     0.59731   0.82529   0.35238   0.00000  Uiso   1.00
C613   C     0.55702   0.80989   0.37986   0.00000  Uiso   1.00
C614   C     0.65280   0.79758   0.43571   0.00000  Uiso   1.00
C615   C     0.59731   0.82529   0.46314   0.00000  Uiso   1.00
C616   C     0.55696   0.75810   0.35233   0.00000  Uiso   1.00
C617   C     0.59720   0.70242   0.37981   0.00000  Uiso   1.00
C618   C     0.55702   0.80989   0.43566   0.00000  Uiso   1.00
C619   C     0.55696   0.75810   0.46320   0.00000  Uiso   1.00
C620   C     0.65270   0.67470   0.35238   0.00000  Uiso   1.00
C621   C     0.69299   0.69011   0.37986   0.00000  Uiso   1.00
C622   C     0.59720   0.70242   0.43571   0.00000  Uiso   1.00
C623   C     0.65270   0.67470   0.46314   0.00000  Uiso   1.00
C624   C     0.69299   0.69011   0.43566   0.00000  Uiso   1.00
C625   C     0.94304   0.49190   0.35233   0.00000  Uiso   1.00
C626   C     0.90280   0.54758   0.37981   0.00000  Uiso   1.00
C627   C     0.94304   0.49190   0.46320   0.00000  Uiso   1.00
C628   C     0.84731   0.57529   0.35238   0.00000  Uiso   1.00
C629   C     0.80702   0.55989   0.37986   0.00000  Uiso   1.00
C630   C     0.90280   0.54758   0.43571   0.00000  Uiso   1.00
C631   C     0.84731   0.57529   0.46314   0.00000  Uiso   1.00
C632   C     0.80696   0.50809   0.35233   0.00000  Uiso   1.00
C633   C     0.84720   0.45242   0.37981   0.00000  Uiso   1.00
C634   C     0.80702   0.55989   0.43566   0.00000  Uiso   1.00
C635   C     0.80696   0.50809   0.46320   0.00000  Uiso   1.00
C636   C     0.90270   0.42470   0.35238   0.00000  Uiso   1.00
C637   C     0.94299   0.44011   0.37986   0.00000  Uiso   1.00
C638   C     0.84720   0.45242   0.43571   0.00000  Uiso   1.00
C639   C     0.90270   0.42470   0.46314   0.00000  Uiso   1.00
C640   C     0.94299   0.44011   0.43566   0.00000  Uiso   1.00
C641   C     0.19304   0.49190   0.35233   0.00000  Uiso   1.00
C642   C     0.15280   0.54758   0.37981   0.00000  Uiso   1.00
C643   C     0.19304   0.49190   0.46320   0.00000  Uiso   1.00
C644   C     0.09730   0.57530   0.35238   0.00000  Uiso   1.00
C645   C     0.05701   0.55989   0.37986   0.00000  Uiso   1.00
C646   C     0.15280   0.54758   0.43572   0.00000  Uiso   1.00
C647   C     0.09730   0.57529   0.46314   0.00000  Uiso   1.00
C648   C     0.05696   0.50810   0.35233   0.00000  Uiso   1.00
C649   C     0.09720   0.45242   0.37981   0.00000  Uiso   1.00
C650   C     0.05701   0.55989   0.43566   0.00000  Uiso   1.00
C651   C     0.05696   0.50810   0.46320   0.00000  Uiso   1.00
C652   C     0.15269   0.42470   0.35238   0.00000  Uiso   1.00
C653   C     0.19299   0.44011   0.37986   0.00000  Uiso   1.00
C654   C     0.09720   0.45242   0.43571   0.00000  Uiso   1.00
C655   C     0.15269   0.42470   0.46314   0.00000  Uiso   1.00
C656   C     0.19299   0.44011   0.43566   0.00000  Uiso   1.00
C657   C     0.44304   0.24190   0.35233   0.00000  Uiso   1.00
C658   C     0.40280   0.29758   0.37981   0.00000  Uiso   1.00
C659   C     0.44304   0.24190   0.46320   0.00000  Uiso   1.00
C660   C     0.34731   0.32529   0.35238   0.00000  Uiso   1.00
C661   C     0.30701   0.30989   0.37986   0.00000  Uiso   1.00
C662   C     0.40280   0.29758   0.43571   0.00000  Uiso   1.00
C663   C     0.34731   0.32529   0.46314   0.00000  Uiso   1.00
C664   C     0.30696   0.25810   0.35233   0.00000  Uiso   1.00
C665   C     0.34720   0.20242   0.37981   0.00000  Uiso   1.00
C666   C     0.30701   0.30989   0.43566   0.00000  Uiso   1.00
C667   C     0.30696   0.25810   0.46320   0.00000  Uiso   1.00
C668   C     0.40269   0.17470   0.35238   0.00000  Uiso   1.00
C669   C     0.44299   0.19011   0.37986   0.00000  Uiso   1.00
C670   C     0.34720   0.20242   0.43571   0.00000  Uiso   1.00
C671   C     0.40270   0.17470   0.46314   0.00000  Uiso   1.00
C672   C     0.44299   0.19011   0.43566   0.00000  Uiso   1.00
C673   C     0.69304   0.99190   0.35233   0.00000  Uiso   1.00
C674   C     0.65280   0.04758   0.37981   0.00000  Uiso   1.00
C675   C     0.69304   0.99190   0.46320   0.00000  Uiso   1.00
C676   C     0.59731   0.07529   0.35238   0.00000  Uiso   1.00
C677   C     0.55701   0.05989   0.37986   0.00000  Uiso   1.00
C678   C     0.65280   0.04758   0.43571   0.00000  Uiso   1.00
C679   C     0.59731   0.07529   0.46314   0.00000  Uiso   1.00
C680   C     0.55696   0.00810   0.35233   0.00000  Uiso   1.00
C681   C     0.59720   0.95242   0.37981   0.00000  Uiso   1.00
C682   C     0.55702   0.05989   0.43566   0.00000  Uiso   1.00
C683   C     0.55696   0.00810   0.46320   0.00000  Uiso   1.00
C684   C     0.65270   0.92470   0.35238   0.00000  Uiso   1.00
C685   C     0.69299   0.94011   0.37986   0.00000  Uiso   1.00
C686   C     0.59720   0.95242   0.43571   0.00000  Uiso   1.00
C687   C     0.65269   0.92470   0.46314   0.00000  Uiso   1.00
C688   C     0.69299   0.94011   0.43566   0.00000  Uiso   1.00
C689   C     0.94304   0.74190   0.35233   0.00000  Uiso   1.00
C690   C     0.90280   0.79758   0.37981   0.00000  Uiso   1.00
C691   C     0.94304   0.74190   0.46320   0.00000  Uiso   1.00
C692   C     0.84731   0.82529   0.35238   0.00000  Uiso   1.00
C693   C     0.80702   0.80989   0.37986   0.00000  Uiso   1.00
C694   C     0.90280   0.79758   0.43571   0.00000  Uiso   1.00
C695   C     0.84731   0.82529   0.46314   0.00000  Uiso   1.00
C696   C     0.80696   0.75810   0.35233   0.00000  Uiso   1.00
C697   C     0.84720   0.70242   0.37981   0.00000  Uiso   1.00
C698   C     0.80702   0.80989   0.43566   0.00000  Uiso   1.00
C699   C     0.80696   0.75810   0.46320   0.00000  Uiso   1.00
C700   C     0.90270   0.67470   0.35238   0.00000  Uiso   1.00
C701   C     0.94299   0.69011   0.37986   0.00000  Uiso   1.00
C702   C     0.84720   0.70242   0.43572   0.00000  Uiso   1.00
C703   C     0.90270   0.67470   0.46314   0.00000  Uiso   1.00
C704   C     0.94299   0.69011   0.43566   0.00000  Uiso   1.00
C705   C     0.19304   0.74190   0.35233   0.00000  Uiso   1.00
C706   C     0.15280   0.79758   0.37981   0.00000  Uiso   1.00
C707   C     0.19304   0.74190   0.46320   0.00000  Uiso   1.00
C708   C     0.09730   0.82529   0.35238   0.00000  Uiso   1.00
C709   C     0.05701   0.80989   0.37986   0.00000  Uiso   1.00
C710   C     0.15280   0.79758   0.43572   0.00000  Uiso   1.00
C711   C     0.09730   0.82529   0.46314   0.00000  Uiso   1.00
C712   C     0.05696   0.75810   0.35233   0.00000  Uiso   1.00
C713   C     0.09720   0.70242   0.37981   0.00000  Uiso   1.00
C714   C     0.05701   0.80989   0.43566   0.00000  Uiso   1.00
C715   C     0.05696   0.75810   0.46320   0.00000  Uiso   1.00
C716   C     0.15269   0.67470   0.35238   0.00000  Uiso   1.00
C717   C     0.19299   0.69011   0.37986   0.00000  Uiso   1.00
C718   C     0.09720   0.70242   0.43571   0.00000  Uiso   1.00
C719   C     0.15269   0.67470   0.46314   0.00000  Uiso   1.00
C720   C     0.19299   0.69011   0.43566   0.00000  Uiso   1.00
C721   C     0.44304   0.49190   0.35233   0.00000  Uiso   1.00
C722   C     0.40280   0.54758   0.37981   0.00000  Uiso   1.00
C723   C     0.44304   0.49190   0.46320   0.00000  Uiso   1.00
C724   C     0.34730   0.57529   0.35238   0.00000  Uiso   1.00
C725   C     0.30701   0.55989   0.37986   0.00000  Uiso   1.00
C726   C     0.40280   0.54758   0.43572   0.00000  Uiso   1.00
C727   C     0.34731   0.57529   0.46314   0.00000  Uiso   1.00
C728   C     0.30696   0.50810   0.35233   0.00000  Uiso   1.00
C729   C     0.34720   0.45242   0.37981   0.00000  Uiso   1.00
C730   C     0.30701   0.55989   0.43566   0.00000  Uiso   1.00
C731   C     0.30696   0.50810   0.46320   0.00000  Uiso   1.00
C732   C     0.40269   0.42470   0.35238   0.00000  Uiso   1.00
C733   C     0.44299   0.44011   0.37986   0.00000  Uiso   1.00
C734   C     0.34720   0.45242   0.43571   0.00000  Uiso   1.00
C735   C     0.40269   0.42470   0.46314   0.00000  Uiso   1.00
C736   C     0.44299   0.44011   0.43566   0.00000  Uiso   1.00
C737   C     0.69304   0.24190   0.35233   0.00000  Uiso   1.00
C738   C     0.65280   0.29758   0.37981   0.00000  Uiso   1.00
C739   C     0.69304   0.24190   0.46320   0.00000  Uiso   1.00
C740   C     0.59731   0.32529   0.35238   0.00000  Uiso   1.00
C741   C     0.55701   0.30989   0.37986   0.00000  Uiso   1.00
C742   C     0.65280   0.29758   0.43571   0.00000  Uiso   1.00
C743   C     0.59731   0.32529   0.46314   0.00000  Uiso   1.00
C744   C     0.55696   0.25810   0.35233   0.00000  Uiso   1.00
C745   C     0.59720   0.20242   0.37981   0.00000  Uiso   1.00
C746   C     0.55702   0.30989   0.43566   0.00000  Uiso   1.00
C747   C     0.55696   0.25810   0.46320   0.00000  Uiso   1.00
C748   C     0.65270   0.17470   0.35238   0.00000  Uiso   1.00
C749   C     0.69299   0.19011   0.37986   0.00000  Uiso   1.00
C750   C     0.59720   0.20242   0.43572   0.00000  Uiso   1.00
C751   C     0.65270   0.17470   0.46314   0.00000  Uiso   1.00
C752   C     0.69299   0.19011   0.43566   0.00000  Uiso   1.00
C753   C     0.94304   0.99190   0.35233   0.00000  Uiso   1.00
C754   C     0.90280   0.04758   0.37981   0.00000  Uiso   1.00
C755   C     0.94304   0.99190   0.46320   0.00000  Uiso   1.00
C756   C     0.84731   0.07529   0.35238   0.00000  Uiso   1.00
C757   C     0.80701   0.05989   0.37986   0.00000  Uiso   1.00
C758   C     0.90280   0.04758   0.43572   0.00000  Uiso   1.00
C759   C     0.84731   0.07529   0.46314   0.00000  Uiso   1.00
C760   C     0.80696   0.00810   0.35233   0.00000  Uiso   1.00
C761   C     0.84720   0.95242   0.37981   0.00000  Uiso   1.00
C762   C     0.80702   0.05989   0.43566   0.00000  Uiso   1.00
C763   C     0.80696   0.00809   0.46320   0.00000  Uiso   1.00
C764   C     0.90270   0.92470   0.35238   0.00000  Uiso   1.00
C765   C     0.94299   0.94011   0.37986   0.00000  Uiso   1.00
C766   C     0.84720   0.95242   0.43572   0.00000  Uiso   1.00
C767   C     0.90270   0.92470   0.46314   0.00000  Uiso   1.00
C768   C     0.94299   0.94011   0.43566   0.00000  Uiso   1.00
C769   C     0.19304   0.99190   0.51899   0.00000  Uiso   1.00
C770   C     0.15280   0.04758   0.54648   0.00000  Uiso   1.00
C771   C     0.19304   0.99190   0.62986   0.00000  Uiso   1.00
C772   C     0.09731   0.07530   0.51905   0.00000  Uiso   1.00
C773   C     0.05701   0.05989   0.54653   0.00000  Uiso   1.00
C774   C     0.15280   0.04758   0.60238   0.00000  Uiso   1.00
C775   C     0.09731   0.07530   0.62981   0.00000  Uiso   1.00
C776   C     0.05696   0.00810   0.51899   0.00000  Uiso   1.00
C777   C     0.09720   0.95242   0.54648   0.00000  Uiso   1.00
C778   C     0.05701   0.05989   0.60233   0.00000  Uiso   1.00
C779   C     0.05696   0.00810   0.62986   0.00000  Uiso   1.00
C780   C     0.15269   0.92470   0.51905   0.00000  Uiso   1.00
C781   C     0.19299   0.94011   0.54653   0.00000  Uiso   1.00
C782   C     0.09720   0.95242   0.60238   0.00000  Uiso   1.00
C783   C     0.15269   0.92470   0.62981   0.00000  Uiso   1.00
C784   C     0.19299   0.94011   0.60233   0.00000  Uiso   1.00
C785   C     0.44304   0.74190   0.51899   0.00000  Uiso   1.00
C786   C     0.40280   0.79758   0.54648   0.00000  Uiso   1.00
C787   C     0.44304   0.74190   0.62986   0.00000  Uiso   1.00
C788   C     0.34731   0.82530   0.51905   0.00000  Uiso   1.00
C789   C     0.30702   0.80989   0.54653   0.00000  Uiso   1.00
C790   C     0.40280   0.79758   0.60238   0.00000  Uiso   1.00
C791   C     0.34731   0.82530   0.62981   0.00000  Uiso   1.00
C792   C     0.30696   0.75810   0.51900   0.00000  Uiso   1.00
C793   C     0.34720   0.70242   0.54648   0.00000  Uiso   1.00
C794   C     0.30702   0.80989   0.60233   0.00000  Uiso   1.00
C795   C     0.30696   0.75810   0.62986   0.00000  Uiso   1.00
C796   C     0.40270   0.67470   0.51905   0.00000  Uiso   1.00
C797   C     0.44299   0.69011   0.54653   0.00000  Uiso   1.00
C798   C     0.34720   0.70242   0.60238   0.00000  Uiso   1.00
C799   C     0.40270   0.67470   0.62981   0.00000  Uiso   1.00
C800   C     0.44299   0.69011   0.60233   0.00000  Uiso   1.00
C801   C     0.69304   0.49190   0.51899   0.00000  Uiso   1.00
C802   C     0.65280   0.54758   0.54648   0.00000  Uiso   1.00
C803   C     0.69304   0.49190   0.62986   0.00000  Uiso   1.00
C804   C     0.59731   0.57529   0.51905   0.00000  Uiso   1.00
C805   C     0.55702   0.55989   0.54653   0.00000  Uiso   1.00
C806   C     0.65280   0.54758   0.60238   0.00000  Uiso   1.00
C807   C     0.59731   0.57529   0.62981   0.00000  Uiso   1.00
C808   C     0.55696   0.50810   0.51899   0.00000  Uiso   1.00
C809   C     0.59720   0.45242   0.54648   0.00000  Uiso   1.00
C810   C     0.55702   0.55989   0.60233   0.00000  Uiso   1.00
C811   C     0.55696   0.50810   0.62986   0.00000  Uiso   1.00
C812   C     0.65270   0.42470   0.51905   0.00000  Uiso   1.00
C813   C     0.69299   0.44011   0.54653   0.00000  Uiso   1.00
C814   C     0.59720   0.45242   0.60238   0.00000  Uiso   1.00
C815   C     0.65270   0.42470   0.62981   0.00000  Uiso   1.00
C816   C     0.69299   0.44011   0.60233   0.00000  Uiso   1.00
C817   C     0.94304   0.24190   0.51900   0.00000  Uiso   1.00
C818   C     0.90280   0.29758   0.54648   0.00000  Uiso   1.00
C819   C     0.94304   0.24190   0.62986   0.00000  Uiso   1.00
C820   C     0.84731   0.32529   0.51905   0.00000  Uiso   1.00
C821   C     0.80702   0.30989   0.54653   0.00000  Uiso   1.00
C822   C     0.90280   0.29758   0.60238   0.00000  Uiso   1.00
C823   C     0.84731   0.32529   0.62981   0.00000  Uiso   1.00
C824   C     0.80697   0.25810   0.51900   0.00000  Uiso   1.00
C825   C     0.84720   0.20242   0.54648   0.00000  Uiso   1.00
C826   C     0.80702   0.30989   0.60233   0.00000  Uiso   1.00
C827   C     0.80697   0.25810   0.62986   0.00000  Uiso   1.00
C828   C     0.90270   0.17470   0.51905   0.00000  Uiso   1.00
C829   C     0.94299   0.19011   0.54653   0.00000  Uiso   1.00
C830   C     0.84720   0.20242   0.60238   0.00000  Uiso   1.00
C831   C     0.90270   0.17470   0.62981   0.00000  Uiso   1.00
C832   C     0.94299   0.19011   0.60233   0.00000  Uiso   1.00
C833   C     0.19304   0.24190   0.51900   0.00000  Uiso   1.00
C834   C     0.15280   0.29758   0.54648   0.00000  Uiso   1.00
C835   C     0.19304   0.24190   0.62987   0.00000  Uiso   1.00
C836   C     0.09731   0.32530   0.51905   0.00000  Uiso   1.00
C837   C     0.05701   0.30989   0.54653   0.00000  Uiso   1.00
C838   C     0.15280   0.29758   0.60238   0.00000  Uiso   1.00
C839   C     0.09731   0.32530   0.62981   0.00000  Uiso   1.00
C840   C     0.05696   0.25810   0.51899   0.00000  Uiso   1.00
C841   C     0.09720   0.20242   0.54648   0.00000  Uiso   1.00
C842   C     0.05701   0.30989   0.60233   0.00000  Uiso   1.00
C843   C     0.05696   0.25810   0.62986   0.00000  Uiso   1.00
C844   C     0.15270   0.17470   0.51905   0.00000  Uiso   1.00
C845   C     0.19299   0.19011   0.54653   0.00000  Uiso   1.00
C846   C     0.09720   0.20242   0.60238   0.00000  Uiso   1.00
C847   C     0.15270   0.17470   0.62981   0.00000  Uiso   1.00
C848   C     0.19299   0.19011   0.60233   0.00000  Uiso   1.00
C849   C     0.44304   0.99190   0.51899   0.00000  Uiso   1.00
C850   C     0.40280   0.04758   0.54648   0.00000  Uiso   1.00
C851   C     0.44304   0.99190   0.62986   0.00000  Uiso   1.00
C852   C     0.34731   0.07529   0.51905   0.00000  Uiso   1.00
C853   C     0.30701   0.05989   0.54653   0.00000  Uiso   1.00
C854   C     0.40280   0.04758   0.60238   0.00000  Uiso   1.00
C855   C     0.34731   0.07529   0.62981   0.00000  Uiso   1.00
C856   C     0.30696   0.00810   0.51899   0.00000  Uiso   1.00
C857   C     0.34720   0.95242   0.54648   0.00000  Uiso   1.00
C858   C     0.30702   0.05989   0.60233   0.00000  Uiso   1.00
C859   C     0.30696   0.00810   0.62986   0.00000  Uiso   1.00
C860   C     0.40270   0.92470   0.51905   0.00000  Uiso   1.00
C861   C     0.44299   0.94011   0.54653   0.00000  Uiso   1.00
C862   C     0.34720   0.95242   0.60238   0.00000  Uiso   1.00
C863   C     0.40269   0.92470   0.62981   0.00000  Uiso   1.00
C864   C     0.44299   0.94011   0.60233   0.00000  Uiso   1.00
C865   C     0.69304   0.74190   0.51899   0.00000  Uiso   1.00
C866   C     0.65280   0.79758   0.54648   0.00000  Uiso   1.00
C867   C     0.69304   0.74190   0.62986   0.00000  Uiso   1.00
C868   C     0.59731   0.82529   0.51905   0.00000  Uiso   1.00
C869   C     0.55702   0.80989   0.54653   0.00000  Uiso   1.00
C870   C     0.65280   0.79758   0.60238   0.00000  Uiso   1.00
C871   C     0.59731   0.82529   0.62981   0.00000  Uiso   1.00
C872   C     0.55696   0.75810   0.51900   0.00000  Uiso   1.00
C873   C     0.59720   0.70242   0.54648   0.00000  Uiso   1.00
C874   C     0.55702   0.80989   0.60233   0.00000  Uiso   1.00
C875   C     0.55696   0.75810   0.62986   0.00000  Uiso   1.00
C876   C     0.65270   0.67470   0.51905   0.00000  Uiso   1.00
C877   C     0.69299   0.69011   0.54653   0.00000  Uiso   1.00
C878   C     0.59720   0.70242   0.60238   0.00000  Uiso   1.00
C879   C     0.65270   0.67470   0.62981   0.00000  Uiso   1.00
C880   C     0.69299   0.69011   0.60233   0.00000  Uiso   1.00
C881   C     0.94304   0.49190   0.51900   0.00000  Uiso   1.00
C882   C     0.90280   0.54758   0.54648   0.00000  Uiso   1.00
C883   C     0.94304   0.49190   0.62986   0.00000  Uiso   1.00
C884   C     0.84731   0.57529   0.51905   0.00000  Uiso   1.00
C885   C     0.80702   0.55989   0.54653   0.00000  Uiso   1.00
C886   C     0.90280   0.54758   0.60238   0.00000  Uiso   1.00
C887   C     0.84731   0.57529   0.62981   0.00000  Uiso   1.00
C888   C     0.80696   0.50810   0.51899   0.00000  Uiso   1.00
C889   C     0.84720   0.45242   0.54648   0.00000  Uiso   1.00
C890   C     0.80702   0.55989   0.60233   0.00000  Uiso   1.00
C891   C     0.80696   0.50810   0.62986   0.00000  Uiso   1.00
C892   C     0.90270   0.42470   0.51905   0.00000  Uiso   1.00
C893   C     0.94299   0.44011   0.54653   0.00000  Uiso   1.00
C894   C     0.84720   0.45242   0.60238   0.00000  Uiso   1.00
C895   C     0.90270   0.42470   0.62981   0.00000  Uiso   1.00
C896   C     0.94299   0.44011   0.60233   0.00000  Uiso   1.00
C897   C     0.19304   0.49190   0.51899   0.00000  Uiso   1.00
C898   C     0.15280   0.54758   0.54648   0.00000  Uiso   1.00
C899   C     0.19304   0.49190   0.62986   0.00000  Uiso   1.00
C900   C     0.09731   0.57529   0.51905   0.00000  Uiso   1.00
C901   C     0.05701   0.55989   0.54653   0.00000  Uiso   1.00
C902   C     0.15280   0.54758   0.60238   0.00000  Uiso   1.00
C903   C     0.09730   0.57530   0.62981   0.00000  Uiso   1.00
C904   C     0.05696   0.50810   0.51900   0.00000  Uiso   1.00
C905   C     0.09720   0.45242   0.54648   0.00000  Uiso   1.00
C906   C     0.05701   0.55989   0.60233   0.00000  Uiso   1.00
C907   C     0.05696   0.50810   0.62986   0.00000  Uiso   1.00
C908   C     0.15269   0.42470   0.51905   0.00000  Uiso   1.00
C909   C     0.19299   0.44011   0.54653   0.00000  Uiso   1.00
C910   C     0.09720   0.45242   0.60238   0.00000  Uiso   1.00
C911   C     0.15269   0.42470   0.62981   0.00000  Uiso   1.00
C912   C     0.19299   0.44011   0.60233   0.00000  Uiso   1.00
C913   C     0.44304   0.24190   0.51900   0.00000  Uiso   1.00
C914   C     0.40280   0.29758   0.54648   0.00000  Uiso   1.00
C915   C     0.44304   0.24190   0.62987   0.00000  Uiso   1.00
C916   C     0.34731   0.32529   0.51905   0.00000  Uiso   1.00
C917   C     0.30701   0.30989   0.54653   0.00000  Uiso   1.00
C918   C     0.40280   0.29758   0.60238   0.00000  Uiso   1.00
C919   C     0.34731   0.32529   0.62981   0.00000  Uiso   1.00
C920   C     0.30696   0.25810   0.51899   0.00000  Uiso   1.00
C921   C     0.34720   0.20242   0.54648   0.00000  Uiso   1.00
C922   C     0.30701   0.30989   0.60233   0.00000  Uiso   1.00
C923   C     0.30696   0.25810   0.62986   0.00000  Uiso   1.00
C924   C     0.40270   0.17470   0.51905   0.00000  Uiso   1.00
C925   C     0.44299   0.19011   0.54653   0.00000  Uiso   1.00
C926   C     0.34720   0.20242   0.60238   0.00000  Uiso   1.00
C927   C     0.40270   0.17470   0.62981   0.00000  Uiso   1.00
C928   C     0.44299   0.19011   0.60233   0.00000  Uiso   1.00
C929   C     0.69304   0.99190   0.51899   0.00000  Uiso   1.00
C930   C     0.65280   0.04758   0.54648   0.00000  Uiso   1.00
C931   C     0.69304   0.99190   0.62986   0.00000  Uiso   1.00
C932   C     0.59731   0.07529   0.51905   0.00000  Uiso   1.00
C933   C     0.55701   0.05989   0.54653   0.00000  Uiso   1.00
C934   C     0.65280   0.04758   0.60238   0.00000  Uiso   1.00
C935   C     0.59731   0.07529   0.62981   0.00000  Uiso   1.00
C936   C     0.55696   0.00810   0.51899   0.00000  Uiso   1.00
C937   C     0.59720   0.95242   0.54648   0.00000  Uiso   1.00
C938   C     0.55701   0.05989   0.60233   0.00000  Uiso   1.00
C939   C     0.55696   0.00810   0.62986   0.00000  Uiso   1.00
C940   C     0.65270   0.92470   0.51905   0.00000  Uiso   1.00
C941   C     0.69299   0.94011   0.54653   0.00000  Uiso   1.00
C942   C     0.59720   0.95242   0.60238   0.00000  Uiso   1.00
C943   C     0.65270   0.92470   0.62981   0.00000  Uiso   1.00
C944   C     0.69299   0.94011   0.60233   0.00000  Uiso   1.00
C945   C     0.94304   0.74190   0.51900   0.00000  Uiso   1.00
C946   C     0.90280   0.79758   0.54648   0.00000  Uiso   1.00
C947   C     0.94304   0.74190   0.62986   0.00000  Uiso   1.00
C948   C     0.84731   0.82529   0.51905   0.00000  Uiso   1.00
C949   C     0.80702   0.80989   0.54653   0.00000  Uiso   1.00
C950   C     0.90280   0.79758   0.60238   0.00000  Uiso   1.00
C951   C     0.84731   0.82529   0.62981   0.00000  Uiso   1.00
C952   C     0.80696   0.75810   0.51899   0.00000  Uiso   1.00
C953   C     0.84720   0.70242   0.54648   0.00000  Uiso   1.00
C954   C     0.80702   0.80989   0.60233   0.00000  Uiso   1.00
C955   C     0.80696   0.75810   0.62986   0.00000  Uiso   1.00
C956   C     0.90270   0.67470   0.51905   0.00000  Uiso   1.00
C957   C     0.94299   0.69011   0.54653   0.00000  Uiso   1.00
C958   C     0.84720   0.70242   0.60238   0.00000  Uiso   1.00
C959   C     0.90270   0.67470   0.62981   0.00000  Uiso   1.00
C960   C     0.94299   0.69011   0.60233   0.00000  Uiso   1.00
C961   C     0.19304   0.74190   0.51899   0.00000  Uiso   1.00
C962   C     0.15280   0.79758   0.54648   0.00000  Uiso   1.00
C963   C     0.19304   0.74190   0.62986   0.00000  Uiso   1.00
C964   C     0.09731   0.82529   0.51905   0.00000  Uiso   1.00
C965   C     0.05701   0.80989   0.54653   0.00000  Uiso   1.00
C966   C     0.15280   0.79758   0.60238   0.00000  Uiso   1.00
C967   C     0.09731   0.82530   0.62981   0.00000  Uiso   1.00
C968   C     0.05696   0.75810   0.51899   0.00000  Uiso   1.00
C969   C     0.09720   0.70242   0.54648   0.00000  Uiso   1.00
C970   C     0.05701   0.80989   0.60233   0.00000  Uiso   1.00
C971   C     0.05696   0.75810   0.62986   0.00000  Uiso   1.00
C972   C     0.15269   0.67470   0.51905   0.00000  Uiso   1.00
C973   C     0.19299   0.69011   0.54653   0.00000  Uiso   1.00
C974   C     0.09720   0.70242   0.60238   0.00000  Uiso   1.00
C975   C     0.15269   0.67470   0.62981   0.00000  Uiso   1.00
C976   C     0.19299   0.69011   0.60233   0.00000  Uiso   1.00
C977   C     0.44304   0.49190   0.51899   0.00000  Uiso   1.00
C978   C     0.40280   0.54758   0.54648   0.00000  Uiso   1.00
C979   C     0.44304   0.49190   0.62986   0.00000  Uiso   1.00
C980   C     0.34730   0.57529   0.51905   0.00000  Uiso   1.00
C981   C     0.30701   0.55989   0.54653   0.00000  Uiso   1.00
C982   C     0.40280   0.54758   0.60238   0.00000  Uiso   1.00
C983   C     0.34730   0.57529   0.62981   0.00000  Uiso   1.00
C984   C     0.30696   0.50810   0.51899   0.00000  Uiso   1.00
C985   C     0.34720   0.45242   0.54648   0.00000  Uiso   1.00
C986   C     0.30702   0.55989   0.60233   0.00000  Uiso   1.00
C987   C     0.30696   0.50810   0.62986   0.00000  Uiso   1.00
C988   C     0.40269   0.42470   0.51905   0.00000  Uiso   1.00
C989   C     0.44299   0.44011   0.54653   0.00000  Uiso   1.00
C990   C     0.34720   0.45242   0.60238   0.00000  Uiso   1.00
C991   C     0.40269   0.42470   0.62981   0.00000  Uiso   1.00
C992   C     0.44299   0.44011   0.60233   0.00000  Uiso   1.00
C993   C     0.69304   0.24190   0.51899   0.00000  Uiso   1.00
C994   C     0.65280   0.29758   0.54648   0.00000  Uiso   1.00
C995   C     0.69304   0.24190   0.62986   0.00000  Uiso   1.00
C996   C     0.59731   0.32529   0.51905   0.00000  Uiso   1.00
C997   C     0.55701   0.30989   0.54653   0.00000  Uiso   1.00
C998   C     0.65280   0.29758   0.60238   0.00000  Uiso   1.00
C999   C     0.59731   0.32529   0.62981   0.00000  Uiso   1.00
C1000  C     0.55696   0.25810   0.51899   0.00000  Uiso   1.00
C1001  C     0.59720   0.20242   0.54648   0.00000  Uiso   1.00
C1002  C     0.55701   0.30989   0.60233   0.00000  Uiso   1.00
C1003  C     0.55696   0.25810   0.62986   0.00000  Uiso   1.00
C1004  C     0.65270   0.17470   0.51905   0.00000  Uiso   1.00
C1005  C     0.69299   0.19011   0.54653   0.00000  Uiso   1.00
C1006  C     0.59720   0.20242   0.60238   0.00000  Uiso   1.00
C1007  C     0.65270   0.17470   0.62981   0.00000  Uiso   1.00
C1008  C     0.69299   0.19011   0.60233   0.00000  Uiso   1.00
C1009  C     0.94304   0.99190   0.51899   0.00000  Uiso   1.00
C1010  C     0.90280   0.04758   0.54648   0.00000  Uiso   1.00
C1011  C     0.94304   0.99190   0.62986   0.00000  Uiso   1.00
C1012  C     0.84731   0.07529   0.51905   0.00000  Uiso   1.00
C1013  C     0.80701   0.05989   0.54653   0.00000  Uiso   1.00
C1014  C     0.90280   0.04758   0.60238   0.00000  Uiso   1.00
C1015  C     0.84731   0.07529   0.62981   0.00000  Uiso   1.00
C1016  C     0.80696   0.00809   0.51899   0.00000  Uiso   1.00
C1017  C     0.84720   0.95242   0.54648   0.00000  Uiso   1.00
C1018  C     0.80702   0.05989   0.60233   0.00000  Uiso   1.00
C1019  C     0.80696   0.00809   0.62986   0.00000  Uiso   1.00
C1020  C     0.90270   0.92470   0.51905   0.00000  Uiso   1.00
C1021  C     0.94299   0.94011   0.54653   0.00000  Uiso   1.00
C1022  C     0.84720   0.95242   0.60238   0.00000  Uiso   1.00
C1023  C     0.90270   0.92470   0.62981   0.00000  Uiso   1.00
C1024  C     0.94299   0.94011   0.60233   0.00000  Uiso   1.00
C1025  C     0.19304   0.99190   0.68566   0.00000  Uiso   1.00
C1026  C     0.15280   0.04758   0.71314   0.00000  Uiso   1.00
C1027  C     0.19304   0.99190   0.79653   0.00000  Uiso   1.00
C1028  C     0.09731   0.07530   0.68572   0.00000  Uiso   1.00
C1029  C     0.05701   0.05989   0.71320   0.00000  Uiso   1.00
C1030  C     0.15280   0.04758   0.76905   0.00000  Uiso   1.00
C1031  C     0.09731   0.07529   0.79648   0.00000  Uiso   1.00
C1032  C     0.05696   0.00810   0.68566   0.00000  Uiso   1.00
C1033  C     0.09720   0.95242   0.71314   0.00000  Uiso   1.00
C1034  C     0.05701   0.05989   0.76900   0.00000  Uiso   1.00
C1035  C     0.05696   0.00810   0.79653   0.00000  Uiso   1.00
C1036  C     0.15269   0.92470   0.68572   0.00000  Uiso   1.00
C1037  C     0.19299   0.94011   0.71320   0.00000  Uiso   1.00
C1038  C     0.09720   0.95242   0.76905   0.00000  Uiso   1.00
C1039  C     0.15269   0.92470   0.79648   0.00000  Uiso   1.00
C1040  C     0.19299   0.94011   0.76900   0.00000  Uiso   1.00
C1041  C     0.44304   0.74190   0.68566   0.00000  Uiso   1.00
C1042  C     0.40280   0.79758   0.71314   0.00000  Uiso   1.00
C1043  C     0.44304   0.74190   0.79653   0.00000  Uiso   1.00
C1044  C     0.34731   0.82529   0.68572   0.00000  Uiso   1.00
C1045  C     0.30701   0.80989   0.71320   0.00000  Uiso   1.00
C1046  C     0.40280   0.79758   0.76905   0.00000  Uiso   1.00
C1047  C     0.34731   0.82530   0.79648   0.00000  Uiso   1.00
C1048  C     0.30696   0.75810   0.68566   0.00000  Uiso   1.00
C1049  C     0.34720   0.70242   0.71314   0.00000  Uiso   1.00
C1050  C     0.30701   0.80989   0.76900   0.00000  Uiso   1.00
C1051  C     0.30696   0.75810   0.79653   0.00000  Uiso   1.00
C1052  C     0.40270   0.67470   0.68572   0.00000  Uiso   1.00
C1053  C     0.44299   0.69011   0.71320   0.00000  Uiso   1.00
C1054  C     0.34720   0.70242   0.76905   0.00000  Uiso   1.00
C1055  C     0.40270   0.67470   0.79648   0.00000  Uiso   1.00
C1056  C     0.44299   0.69011   0.76899   0.00000  Uiso   1.00
C1057  C     0.69304   0.49190   0.68566   0.00000  Uiso   1.00
C1058  C     0.65280   0.54758   0.71315   0.00000  Uiso   1.00
C1059  C     0.69304   0.49190   0.79653   0.00000  Uiso   1.00
C1060  C     0.59731   0.57529   0.68572   0.00000  Uiso   1.00
C1061  C     0.55702   0.55989   0.71320   0.00000  Uiso   1.00
C1062  C     0.65280   0.54758   0.76905   0.00000  Uiso   1.00
C1063  C     0.59731   0.57529   0.79648   0.00000  Uiso   1.00
C1064  C     0.55696   0.50810   0.68566   0.00000  Uiso   1.00
C1065  C     0.59720   0.45242   0.71314   0.00000  Uiso   1.00
C1066  C     0.55702   0.55989   0.76900   0.00000  Uiso   1.00
C1067  C     0.55696   0.50810   0.79653   0.00000  Uiso   1.00
C1068  C     0.65270   0.42470   0.68572   0.00000  Uiso   1.00
C1069  C     0.69299   0.44011   0.71320   0.00000  Uiso   1.00
C1070  C     0.59720   0.45242   0.76905   0.00000  Uiso   1.00
C1071  C     0.65270   0.42470   0.79648   0.00000  Uiso   1.00
C1072  C     0.69299   0.44011   0.76900   0.00000  Uiso   1.00
C1073  C     0.94304   0.24190   0.68566   0.00000  Uiso   1.00
C1074  C     0.90280   0.29758   0.71314   0.00000  Uiso   1.00
C1075  C     0.94304   0.24190   0.79653   0.00000  Uiso   1.00
C1076  C     0.84731   0.32529   0.68572   0.00000  Uiso   1.00
C1077  C     0.80702   0.30989   0.71320   0.00000  Uiso   1.00
C1078  C     0.90280   0.29758   0.76905   0.00000  Uiso   1.00
C1079  C     0.84731   0.32529   0.79648   0.00000  Uiso   1.00
C1080  C     0.80696   0.25810   0.68566   0.00000  Uiso   1.00
C1081  C     0.84720   0.20242   0.71315   0.00000  Uiso   1.00
C1082  C     0.80702   0.30989   0.76900   0.00000  Uiso   1.00
C1083  C     0.80696   0.25810   0.79653   0.00000  Uiso   1.00
C1084  C     0.90270   0.17470   0.68572   0.00000  Uiso   1.00
C1085  C     0.94299   0.19011   0.71320   0.00000  Uiso   1.00
C1086  C     0.84720   0.20242   0.76905   0.00000  Uiso   1.00
C1087  C     0.90270   0.17470   0.79648   0.00000  Uiso   1.00
C1088  C     0.94299   0.19011   0.76900   0.00000  Uiso   1.00
C1089  C     0.19304   0.24190   0.68566   0.00000  Uiso   1.00
C1090  C     0.15280   0.29758   0.71314   0.00000  Uiso   1.00
C1091  C     0.19304   0.24190   0.79653   0.00000  Uiso   1.00
C1092  C     0.09731   0.32530   0.68572   0.00000  Uiso   1.00
C1093  C     0.05701   0.30989   0.71320   0.00000  Uiso   1.00
C1094  C     0.15280   0.29758   0.76905   0.00000  Uiso   1.00
C1095  C     0.09731   0.32530   0.79648   0.00000  Uiso   1.00
C1096  C     0.05696   0.25810   0.68566   0.00000  Uiso   1.00
C1097  C     0.09720   0.20242   0.71314   0.00000  Uiso   1.00
C1098  C     0.05701   0.30989   0.76900   0.00000  Uiso   1.00
C1099  C     0.05696   0.25810   0.79653   0.00000  Uiso   1.00
C1100  C     0.15269   0.17470   0.68572   0.00000  Uiso   1.00
C1101  C     0.19299   0.19011   0.71320   0.00000  Uiso   1.00
C1102  C     0.09720   0.20242   0.76905   0.00000  Uiso   1.00
C1103  C     0.15269   0.17470   0.79648   0.00000  Uiso   1.00
C1104  C     0.19299   0.19011   0.76900   0.00000  Uiso   1.00
C1105  C     0.44304   0.99190   0.68566   0.00000  Uiso   1.00
C1106  C     0.40280   0.04758   0.71314   0.00000  Uiso   1.00
C1107  C     0.44304   0.99190   0.79653   0.00000  Uiso   1.00
C1108  C     0.34731   0.07529   0.68572   0.00000  Uiso   1.00
C1109  C     0.30701   0.05989   0.71320   0.00000  Uiso   1.00
C1110  C     0.40280   0.04758   0.76905   0.00000  Uiso   1.00
C1111  C     0.34731   0.07529   0.79648   0.00000  Uiso   1.00
C1112  C     0.30696   0.00810   0.68566   0.00000  Uiso   1.00
C1113  C     0.34720   0.95242   0.71314   0.00000  Uiso   1.00
C1114  C     0.30702   0.05989   0.76900   0.00000  Uiso   1.00
C1115  C     0.30696   0.00810   0.79653   0.00000  Uiso   1.00
C1116  C     0.40270   0.92470   0.68572   0.00000  Uiso   1.00
C1117  C     0.44299   0.94011   0.71320   0.00000  Uiso   1.00
C1118  C     0.34720   0.95242   0.76905   0.00000  Uiso   1.00
C1119  C     0.40270   0.92470   0.79648   0.00000  Uiso   1.00
C1120  C     0.44299   0.94011   0.76899   0.00000  Uiso   1.00
C1121  C     0.69304   0.74190   0.68566   0.00000  Uiso   1.00
C1122  C     0.65280   0.79758   0.71314   0.00000  Uiso   1.00
C1123  C     0.69304   0.74190   0.79653   0.00000  Uiso   1.00
C1124  C     0.59731   0.82529   0.68572   0.00000  Uiso   1.00
C1125  C     0.55702   0.80989   0.71320   0.00000  Uiso   1.00
C1126  C     0.65280   0.79758   0.76905   0.00000  Uiso   1.00
C1127  C     0.59731   0.82529   0.79648   0.00000  Uiso   1.00
C1128  C     0.55696   0.75810   0.68566   0.00000  Uiso   1.00
C1129  C     0.59720   0.70242   0.71314   0.00000  Uiso   1.00
C1130  C     0.55702   0.80989   0.76900   0.00000  Uiso   1.00
C1131  C     0.55696   0.75810   0.79653   0.00000  Uiso   1.00
C1132  C     0.65270   0.67470   0.68571   0.00000  Uiso   1.00
C1133  C     0.69299   0.69011   0.71320   0.00000  Uiso   1.00
C1134  C     0.59720   0.70242   0.76905   0.00000  Uiso   1.00
C1135  C     0.65270   0.67470   0.79648   0.00000  Uiso   1.00
C1136  C     0.69299   0.69011   0.76900   0.00000  Uiso   1.00
C1137  C     0.94304   0.49190   0.68566   0.00000  Uiso   1.00
C1138  C     0.90280   0.54758   0.71314   0.00000  Uiso   1.00
C1139  C     0.94304   0.49190   0.79653   0.00000  Uiso   1.00
C1140  C     0.84731   0.57529   0.68572   0.00000  Uiso   1.00
C1141  C     0.80702   0.55989   0.71320   0.00000  Uiso   1.00
C1142  C     0.90280   0.54758   0.76905   0.00000  Uiso   1.00
C1143  C     0.84731   0.57529   0.79648   0.00000  Uiso   1.00
C1144  C     0.80696   0.50810   0.68566   0.00000  Uiso   1.00
C1145  C     0.84720   0.45242   0.71315   0.00000  Uiso   1.00
C1146  C     0.80702   0.55989   0.76900   0.00000  Uiso   1.00
C1147  C     0.80696   0.50809   0.79653   0.00000  Uiso   1.00
C1148  C     0.90270   0.42470   0.68572   0.00000  Uiso   1.00
C1149  C     0.94299   0.44011   0.71320   0.00000  Uiso   1.00
C1150  C     0.84720   0.45242   0.76905   0.00000  Uiso   1.00
C1151  C     0.90270   0.42470   0.79648   0.00000  Uiso   1.00
C1152  C     0.94299   0.44011   0.76900   0.00000  Uiso   1.00
C1153  C     0.19304   0.49190   0.68566   0.00000  Uiso   1.00
C1154  C     0.15280   0.54758   0.71314   0.00000  Uiso   1.00
C1155  C     0.19304   0.49190   0.79653   0.00000  Uiso   1.00
C1156  C     0.09730   0.57530   0.68572   0.00000  Uiso   1.00
C1157  C     0.05701   0.55989   0.71320   0.00000  Uiso   1.00
C1158  C     0.15280   0.54758   0.76905   0.00000  Uiso   1.00
C1159  C     0.09731   0.57530   0.79648   0.00000  Uiso   1.00
C1160  C     0.05696   0.50810   0.68566   0.00000  Uiso   1.00
C1161  C     0.09720   0.45242   0.71314   0.00000  Uiso   1.00
C1162  C     0.05701   0.55989   0.76900   0.00000  Uiso   1.00
C1163  C     0.05696   0.50810   0.79653   0.00000  Uiso   1.00
C1164  C     0.15269   0.42470   0.68572   0.00000  Uiso   1.00
C1165  C     0.19299   0.44011   0.71320   0.00000  Uiso   1.00
C1166  C     0.09720   0.45242   0.76905   0.00000  Uiso   1.00
C1167  C     0.15269   0.42470   0.79648   0.00000  Uiso   1.00
C1168  C     0.19299   0.44011   0.76900   0.00000  Uiso   1.00
C1169  C     0.44304   0.24190   0.68566   0.00000  Uiso   1.00
C1170  C     0.40280   0.29758   0.71314   0.00000  Uiso   1.00
C1171  C     0.44304   0.24190   0.79653   0.00000  Uiso   1.00
C1172  C     0.34731   0.32529   0.68572   0.00000  Uiso   1.00
C1173  C     0.30701   0.30989   0.71320   0.00000  Uiso   1.00
C1174  C     0.40280   0.29758   0.76905   0.00000  Uiso   1.00
C1175  C     0.34731   0.32529   0.79648   0.00000  Uiso   1.00
C1176  C     0.30696   0.25810   0.68566   0.00000  Uiso   1.00
C1177  C     0.34720   0.20242   0.71314   0.00000  Uiso   1.00
C1178  C     0.30701   0.30989   0.76900   0.00000  Uiso   1.00
C1179  C     0.30696   0.25810   0.79653   0.00000  Uiso   1.00
C1180  C     0.40270   0.17470   0.68572   0.00000  Uiso   1.00
C1181  C     0.44299   0.19011   0.71320   0.00000  Uiso   1.00
C1182  C     0.34720   0.20242   0.76905   0.00000  Uiso   1.00
C1183  C     0.40270   0.17470   0.79648   0.00000  Uiso   1.00
C1184  C     0.44299   0.19011   0.76900   0.00000  Uiso   1.00
C1185  C     0.69304   0.99190   0.68566   0.00000  Uiso   1.00
C1186  C     0.65280   0.04758   0.71314   0.00000  Uiso   1.00
C1187  C     0.69304   0.99190   0.79653   0.00000  Uiso   1.00
C1188  C     0.59731   0.07529   0.68572   0.00000  Uiso   1.00
C1189  C     0.55701   0.05989   0.71320   0.00000  Uiso   1.00
C1190  C     0.65280   0.04758   0.76905   0.00000  Uiso   1.00
C1191  C     0.59731   0.07529   0.79648   0.00000  Uiso   1.00
C1192  C     0.55696   0.00810   0.68566   0.00000  Uiso   1.00
C1193  C     0.59720   0.95242   0.71314   0.00000  Uiso   1.00
C1194  C     0.55702   0.05989   0.76900   0.00000  Uiso   1.00
C1195  C     0.55696   0.00810   0.79653   0.00000  Uiso   1.00
C1196  C     0.65270   0.92470   0.68572   0.00000  Uiso   1.00
C1197  C     0.69299   0.94011   0.71320   0.00000  Uiso   1.00
C1198  C     0.59720   0.95242   0.76905   0.00000  Uiso   1.00
C1199  C     0.65270   0.92470   0.79648   0.00000  Uiso   1.00
C1200  C     0.69299   0.94011   0.76900   0.00000  Uiso   1.00
C1201  C     0.94304   0.74190   0.68566   0.00000  Uiso   1.00
C1202  C     0.90280   0.79758   0.71314   0.00000  Uiso   1.00
C1203  C     0.94304   0.74190   0.79653   0.00000  Uiso   1.00
C1204  C     0.84731   0.82529   0.68571   0.00000  Uiso   1.00
C1205  C     0.80702   0.80989   0.71320   0.00000  Uiso   1.00
C1206  C     0.90280   0.79758   0.76905   0.00000  Uiso   1.00
C1207  C     0.84731   0.82529   0.79648   0.00000  Uiso   1.00
C1208  C     0.80696   0.75810   0.68566   0.00000  Uiso   1.00
C1209  C     0.84720   0.70242   0.71315   0.00000  Uiso   1.00
C1210  C     0.80702   0.80989   0.76900   0.00000  Uiso   1.00
C1211  C     0.80697   0.75809   0.79653   0.00000  Uiso   1.00
C1212  C     0.90270   0.67470   0.68572   0.00000  Uiso   1.00
C1213  C     0.94299   0.69011   0.71320   0.00000  Uiso   1.00
C1214  C     0.84720   0.70242   0.76905   0.00000  Uiso   1.00
C1215  C     0.90270   0.67470   0.79648   0.00000  Uiso   1.00
C1216  C     0.94299   0.69011   0.76900   0.00000  Uiso   1.00
C1217  C     0.19304   0.74190   0.68566   0.00000  Uiso   1.00
C1218  C     0.15280   0.79758   0.71314   0.00000  Uiso   1.00
C1219  C     0.19304   0.74190   0.79653   0.00000  Uiso   1.00
C1220  C     0.09730   0.82530   0.68572   0.00000  Uiso   1.00
C1221  C     0.05701   0.80989   0.71320   0.00000  Uiso   1.00
C1222  C     0.15280   0.79758   0.76905   0.00000  Uiso   1.00
C1223  C     0.09730   0.82530   0.79648   0.00000  Uiso   1.00
C1224  C     0.05696   0.75810   0.68566   0.00000  Uiso   1.00
C1225  C     0.09720   0.70242   0.71314   0.00000  Uiso   1.00
C1226  C     0.05701   0.80989   0.76900   0.00000  Uiso   1.00
C1227  C     0.05696   0.75810   0.79653   0.00000  Uiso   1.00
C1228  C     0.15270   0.67470   0.68572   0.00000  Uiso   1.00
C1229  C     0.19299   0.69011   0.71320   0.00000  Uiso   1.00
C1230  C     0.09720   0.70242   0.76905   0.00000  Uiso   1.00
C1231  C     0.15269   0.67470   0.79648   0.00000  Uiso   1.00
C1232  C     0.19298   0.69011   0.76900   0.00000  Uiso   1.00
C1233  C     0.44304   0.49190   0.68566   0.00000  Uiso   1.00
C1234  C     0.40280   0.54758   0.71314   0.00000  Uiso   1.00
C1235  C     0.44304   0.49190   0.79653   0.00000  Uiso   1.00
C1236  C     0.34731   0.57529   0.68572   0.00000  Uiso   1.00
C1237  C     0.30701   0.55989   0.71320   0.00000  Uiso   1.00
C1238  C     0.40280   0.54758   0.76905   0.00000  Uiso   1.00
C1239  C     0.34730   0.57529   0.79648   0.00000  Uiso   1.00
C1240  C     0.30696   0.50810   0.68566   0.00000  Uiso   1.00
C1241  C     0.34720   0.45242   0.71314   0.00000  Uiso   1.00
C1242  C     0.30701   0.55989   0.76900   0.00000  Uiso   1.00
C1243  C     0.30696   0.50810   0.79653   0.00000  Uiso   1.00
C1244  C     0.40270   0.42470   0.68572   0.00000  Uiso   1.00
C1245  C     0.44299   0.44011   0.71320   0.00000  Uiso   1.00
C1246  C     0.34720   0.45242   0.76905   0.00000  Uiso   1.00
C1247  C     0.40269   0.42470   0.79648   0.00000  Uiso   1.00
C1248  C     0.44299   0.44011   0.76900   0.00000  Uiso   1.00
C1249  C     0.69304   0.24190   0.68566   0.00000  Uiso   1.00
C1250  C     0.65280   0.29758   0.71314   0.00000  Uiso   1.00
C1251  C     0.69304   0.24190   0.79653   0.00000  Uiso   1.00
C1252  C     0.59731   0.32529   0.68572   0.00000  Uiso   1.00
C1253  C     0.55701   0.30989   0.71320   0.00000  Uiso   1.00
C1254  C     0.65280   0.29758   0.76905   0.00000  Uiso   1.00
C1255  C     0.59731   0.32529   0.79648   0.00000  Uiso   1.00
C1256  C     0.55696   0.25810   0.68566   0.00000  Uiso   1.00
C1257  C     0.59720   0.20242   0.71314   0.00000  Uiso   1.00
C1258  C     0.55702   0.30989   0.76900   0.00000  Uiso   1.00
C1259  C     0.55696   0.25810   0.79653   0.00000  Uiso   1.00
C1260  C     0.65270   0.17470   0.68572   0.00000  Uiso   1.00
C1261  C     0.69299   0.19011   0.71320   0.00000  Uiso   1.00
C1262  C     0.59720   0.20242   0.76905   0.00000  Uiso   1.00
C1263  C     0.65270   0.17470   0.79648   0.00000  Uiso   1.00
C1264  C     0.69299   0.19011   0.76900   0.00000  Uiso   1.00
C1265  C     0.94304   0.99190   0.68566   0.00000  Uiso   1.00
C1266  C     0.90280   0.04758   0.71314   0.00000  Uiso   1.00
C1267  C     0.94304   0.99190   0.79653   0.00000  Uiso   1.00
C1268  C     0.84731   0.07529   0.68572   0.00000  Uiso   1.00
C1269  C     0.80701   0.05989   0.71320   0.00000  Uiso   1.00
C1270  C     0.90280   0.04758   0.76905   0.00000  Uiso   1.00
C1271  C     0.84731   0.07529   0.79648   0.00000  Uiso   1.00
C1272  C     0.80696   0.00810   0.68566   0.00000  Uiso   1.00
C1273  C     0.84720   0.95242   0.71314   0.00000  Uiso   1.00
C1274  C     0.80702   0.05989   0.76900   0.00000  Uiso   1.00
C1275  C     0.80696   0.00809   0.79653   0.00000  Uiso   1.00
C1276  C     0.90270   0.92470   0.68572   0.00000  Uiso   1.00
C1277  C     0.94299   0.94011   0.71320   0.00000  Uiso   1.00
C1278  C     0.84720   0.95242   0.76905   0.00000  Uiso   1.00
C1279  C     0.90270   0.92470   0.79648   0.00000  Uiso   1.00
C1280  C     0.94299   0.94011   0.76900   0.00000  Uiso   1.00
C1281  C     0.19304   0.99190   0.85233   0.00000  Uiso   1.00
C1282  C     0.15280   0.04758   0.87981   0.00000  Uiso   1.00
C1283  C     0.19304   0.99190   0.96320   0.00000  Uiso   1.00
C1284  C     0.09731   0.07529   0.85238   0.00000  Uiso   1.00
C1285  C     0.05701   0.05989   0.87986   0.00000  Uiso   1.00
C1286  C     0.15280   0.04758   0.93572   0.00000  Uiso   1.00
C1287  C     0.09731   0.07530   0.96315   0.00000  Uiso   1.00
C1288  C     0.05696   0.00810   0.85233   0.00000  Uiso   1.00
C1289  C     0.09720   0.95242   0.87981   0.00000  Uiso   1.00
C1290  C     0.05701   0.05989   0.93566   0.00000  Uiso   1.00
C1291  C     0.05696   0.00810   0.96320   0.00000  Uiso   1.00
C1292  C     0.15269   0.92470   0.85238   0.00000  Uiso   1.00
C1293  C     0.19299   0.94011   0.87986   0.00000  Uiso   1.00
C1294  C     0.09720   0.95242   0.93572   0.00000  Uiso   1.00
C1295  C     0.15269   0.92470   0.96314   0.00000  Uiso   1.00
C1296  C     0.19299   0.94011   0.93566   0.00000  Uiso   1.00
C1297  C     0.44304   0.74190   0.85233   0.00000  Uiso   1.00
C1298  C     0.40280   0.79758   0.87981   0.00000  Uiso   1.00
C1299  C     0.44304   0.74190   0.96320   0.00000  Uiso   1.00
C1300  C     0.34731   0.82529   0.85238   0.00000  Uiso   1.00
C1301  C     0.30701   0.80989   0.87986   0.00000  Uiso   1.00
C1302  C     0.40280   0.79758   0.93572   0.00000  Uiso   1.00
C1303  C     0.34731   0.82529   0.96315   0.00000  Uiso   1.00
C1304  C     0.30696   0.75810   0.85233   0.00000  Uiso   1.00
C1305  C     0.34720   0.70242   0.87981   0.00000  Uiso   1.00
C1306  C     0.30702   0.80989   0.93566   0.00000  Uiso   1.00
C1307  C     0.30696   0.75810   0.96320   0.00000  Uiso   1.00
C1308  C     0.40270   0.67470   0.85238   0.00000  Uiso   1.00
C1309  C     0.44299   0.69011   0.87986   0.00000  Uiso   1.00
C1310  C     0.34720   0.70242   0.93571   0.00000  Uiso   1.00
C1311  C     0.40270   0.67470   0.96315   0.00000  Uiso   1.00
C1312  C     0.44299   0.69011   0.93566   0.00000  Uiso   1.00
C1313  C     0.69304   0.49190   0.85233   0.00000  Uiso   1.00
C1314  C     0.65280   0.54758   0.87981   0.00000  Uiso   1.00
C1315  C     0.69304   0.49190   0.96320   0.00000  Uiso   1.00
C1316  C     0.59731   0.57529   0.85238   0.00000  Uiso   1.00
C1317  C     0.55702   0.55989   0.87986   0.00000  Uiso   1.00
C1318  C     0.65280   0.54758   0.93571   0.00000  Uiso   1.00
C1319  C     0.59731   0.57529   0.96315   0.00000  Uiso   1.00
C1320  C     0.55696   0.50810   0.85233   0.00000  Uiso   1.00
C1321  C     0.59720   0.45242   0.87981   0.00000  Uiso   1.00
C1322  C     0.55702   0.55989   0.93566   0.00000  Uiso   1.00
C1323  C     0.55696   0.50810   0.96320   0.00000  Uiso   1.00
C1324  C     0.65270   0.42470   0.85238   0.00000  Uiso   1.00
C1325  C     0.69299   0.44011   0.87986   0.00000  Uiso   1.00
C1326  C     0.59720   0.45242   0.93571   0.00000  Uiso   1.00
C1327  C     0.65270   0.42470   0.96314   0.00000  Uiso   1.00
C1328  C     0.69299   0.44011   0.93566   0.00000  Uiso   1.00
C1329  C     0.94304   0.24190   0.85233   0.00000  Uiso   1.00
C1330  C     0.90280   0.29758   0.87981   0.00000  Uiso   1.00
C1331  C     0.94304   0.24190   0.96320   0.00000  Uiso   1.00
C1332  C     0.84731   0.32529   0.85238   0.00000  Uiso   1.00
C1333  C     0.80702   0.30989   0.87986   0.00000  Uiso   1.00
C1334  C     0.90280   0.29758   0.93571   0.00000  Uiso   1.00
C1335  C     0.84731   0.32529   0.96314   0.00000  Uiso   1.00
C1336  C     0.80697   0.25810   0.85233   0.00000  Uiso   1.00
C1337  C     0.84720   0.20242   0.87981   0.00000  Uiso   1.00
C1338  C     0.80702   0.30989   0.93566   0.00000  Uiso   1.00
C1339  C     0.80696   0.25810   0.96320   0.00000  Uiso   1.00
C1340  C     0.90270   0.17470   0.85238   0.00000  Uiso   1.00
C1341  C     0.94299   0.19011   0.87986   0.00000  Uiso   1.00
C1342  C     0.84720   0.20242   0.93571   0.00000  Uiso   1.00
C1343  C     0.90270   0.17470   0.96315   0.00000  Uiso   1.00
C1344  C     0.94299   0.19011   0.93566   0.00000  Uiso   1.00
C1345  C     0.19304   0.24190   0.85233   0.00000  Uiso   1.00
C1346  C     0.15280   0.29758   0.87981   0.00000  Uiso   1.00
C1347  C     0.19304   0.24190   0.96320   0.00000  Uiso   1.00
C1348  C     0.09731   0.32530   0.85238   0.00000  Uiso   1.00
C1349  C     0.05701   0.30989   0.87986   0.00000  Uiso   1.00
C1350  C     0.15280   0.29758   0.93572   0.00000  Uiso   1.00
C1351  C     0.09730   0.32530   0.96315   0.00000  Uiso   1.00
C1352  C     0.05696   0.25810   0.85233   0.00000  Uiso   1.00
C1353  C     0.09720   0.20242   0.87981   0.00000  Uiso   1.00
C1354  C     0.05701   0.30989   0.93566   0.00000  Uiso   1.00
C1355  C     0.05696   0.25810   0.96320   0.00000  Uiso   1.00
C1356  C     0.15270   0.17470   0.85238   0.00000  Uiso   1.00
C1357  C     0.19299   0.19011   0.87986   0.00000  Uiso   1.00
C1358  C     0.09720   0.20242   0.93572   0.00000  Uiso   1.00
C1359  C     0.15269   0.17470   0.96314   0.00000  Uiso   1.00
C1360  C     0.19299   0.19011   0.93566   0.00000  Uiso   1.00
C1361  C     0.44304   0.99190   0.85233   0.00000  Uiso   1.00
C1362  C     0.40280   0.04758   0.87981   0.00000  Uiso   1.00
C1363  C     0.44304   0.99190   0.96320   0.00000  Uiso   1.00
C1364  C     0.34731   0.07529   0.85238   0.00000  Uiso   1.00
C1365  C     0.30701   0.05989   0.87986   0.00000  Uiso   1.00
C1366  C     0.40280   0.04758   0.93572   0.00000  Uiso   1.00
C1367  C     0.34731   0.07529   0.96314   0.00000  Uiso   1.00
C1368  C     0.30696   0.00810   0.85233   0.00000  Uiso   1.00
C1369  C     0.34720   0.95242   0.87981   0.00000  Uiso   1.00
C1370  C     0.30702   0.05989   0.93566   0.00000  Uiso   1.00
C1371  C     0.30696   0.00810   0.96320   0.00000  Uiso   1.00
C1372  C     0.40269   0.92470   0.85238   0.00000  Uiso   1.00
C1373  C     0.44299   0.94011   0.87986   0.00000  Uiso   1.00
C1374  C     0.34720   0.95242   0.93571   0.00000  Uiso   1.00
C1375  C     0.40269   0.92470   0.96314   0.00000  Uiso   1.00
C1376  C     0.44299   0.94011   0.93566   0.00000  Uiso   1.00
C1377  C     0.69304   0.74190   0.85233   0.00000  Uiso   1.00
C1378  C     0.65280   0.79758   0.87981   0.00000  Uiso   1.00
C1379  C     0.69304   0.74190   0.96320   0.00000  Uiso   1.00
C1380  C     0.59731   0.82529   0.85238   0.00000  Uiso   1.00
C1381  C     0.55702   0.80989   0.87986   0.00000  Uiso   1.00
C1382  C     0.65280   0.79758   0.93571   0.00000  Uiso   1.00
C1383  C     0.59731   0.82529   0.96315   0.00000  Uiso   1.00
C1384  C     0.55696   0.75810   0.85233   0.00000  Uiso   1.00
C1385  C     0.59720   0.70242   0.87981   0.00000  Uiso   1.00
C1386  C     0.55702   0.80989   0.93566   0.00000  Uiso   1.00
C1387  C     0.55696   0.75810   0.96320   0.00000  Uiso   1.00
C1388  C     0.65270   0.67470   0.85238   0.00000  Uiso   1.00
C1389  C     0.69299   0.69011   0.87986   0.00000  Uiso   1.00
C1390  C     0.59720   0.70242   0.93571   0.00000  Uiso   1.00
C1391  C     0.65270   0.67470   0.96314   0.00000  Uiso   1.00
C1392  C     0.69299   0.69011   0.93566   0.00000  Uiso   1.00
C1393  C     0.94304   0.49190   0.85233   0.00000  Uiso   1.00
C1394  C     0.90280   0.54758   0.87981   0.00000  Uiso   1.00
C1395  C     0.94304   0.49190   0.96320   0.00000  Uiso   1.00
C1396  C     0.84731   0.57529   0.85238   0.00000  Uiso   1.00
C1397  C     0.80702   0.55989   0.87986   0.00000  Uiso   1.00
C1398  C     0.90280   0.54758   0.93571   0.00000  Uiso   1.00
C1399  C     0.84731   0.57529   0.96314   0.00000  Uiso   1.00
C1400  C     0.80696   0.50810   0.85233   0.00000  Uiso   1.00
C1401  C     0.84720   0.45242   0.87981   0.00000  Uiso   1.00
C1402  C     0.80702   0.55989   0.93566   0.00000  Uiso   1.00
C1403  C     0.80696   0.50809   0.96320   0.00000  Uiso   1.00
C1404  C     0.90270   0.42470   0.85238   0.00000  Uiso   1.00
C1405  C     0.94299   0.44011   0.87986   0.00000  Uiso   1.00
C1406  C     0.84720   0.45242   0.93571   0.00000  Uiso   1.00
C1407  C     0.90270   0.42470   0.96314   0.00000  Uiso   1.00
C1408  C     0.94299   0.44011   0.93566   0.00000  Uiso   1.00
C1409  C     0.19304   0.49190   0.85233   0.00000  Uiso   1.00
C1410  C     0.15280   0.54758   0.87981   0.00000  Uiso   1.00
C1411  C     0.19304   0.49190   0.96320   0.00000  Uiso   1.00
C1412  C     0.09731   0.57529   0.85238   0.00000  Uiso   1.00
C1413  C     0.05701   0.55989   0.87986   0.00000  Uiso   1.00
C1414  C     0.15280   0.54758   0.93571   0.00000  Uiso   1.00
C1415  C     0.09731   0.57529   0.96314   0.00000  Uiso   1.00
C1416  C     0.05696   0.50810   0.85233   0.00000  Uiso   1.00
C1417  C     0.09720   0.45242   0.87981   0.00000  Uiso   1.00
C1418  C     0.05701   0.55989   0.93566   0.00000  Uiso   1.00
C1419  C     0.05696   0.50810   0.96320   0.00000  Uiso   1.00
C1420  C     0.15269   0.42470   0.85238   0.00000  Uiso   1.00
C1421  C     0.19299   0.44011   0.87986   0.00000  Uiso   1.00
C1422  C     0.09720   0.45242   0.93571   0.00000  Uiso   1.00
C1423  C     0.15269   0.42470   0.96314   0.00000  Uiso   1.00
C1424  C     0.19299   0.44011   0.93566   0.00000  Uiso   1.00
C1425  C     0.44304   0.24190   0.85233   0.00000  Uiso   1.00
C1426  C     0.40280   0.29758   0.87981   0.00000  Uiso   1.00
C1427  C     0.44304   0.24190   0.96320   0.00000  Uiso   1.00
C1428  C     0.34730   0.32529   0.85238   0.00000  Uiso   1.00
C1429  C     0.30701   0.30989   0.87986   0.00000  Uiso   1.00
C1430  C     0.40280   0.29758   0.93571   0.00000  Uiso   1.00
C1431  C     0.34731   0.32529   0.96314   0.00000  Uiso   1.00
C1432  C     0.30696   0.25810   0.85233   0.00000  Uiso   1.00
C1433  C     0.34720   0.20242   0.87981   0.00000  Uiso   1.00
C1434  C     0.30701   0.30989   0.93566   0.00000  Uiso   1.00
C1435  C     0.30696   0.25810   0.96320   0.00000  Uiso   1.00
C1436  C     0.40270   0.17470   0.85238   0.00000  Uiso   1.00
C1437  C     0.44299   0.19011   0.87986   0.00000  Uiso   1.00
C1438  C     0.34720   0.20242   0.93572   0.00000  Uiso   1.00
C1439  C     0.40270   0.17470   0.96314   0.00000  Uiso   1.00
C1440  C     0.44299   0.19011   0.93566   0.00000  Uiso   1.00
C1441  C     0.69304   0.99190   0.85233   0.00000  Uiso   1.00
C1442  C     0.65280   0.04758   0.87981   0.00000  Uiso   1.00
C1443  C     0.69304   0.99190   0.96320   0.00000  Uiso   1.00
C1444  C     0.59731   0.07529   0.85238   0.00000  Uiso   1.00
C1445  C     0.55702   0.05989   0.87986   0.00000  Uiso   1.00
C1446  C     0.65280   0.04758   0.93572   0.00000  Uiso   1.00
C1447  C     0.59731   0.07529   0.96314   0.00000  Uiso   1.00
C1448  C     0.55696   0.00809   0.85233   0.00000  Uiso   1.00
C1449  C     0.59720   0.95242   0.87981   0.00000  Uiso   1.00
C1450  C     0.55702   0.05989   0.93566   0.00000  Uiso   1.00
C1451  C     0.55696   0.00809   0.96320   0.00000  Uiso   1.00
C1452  C     0.65270   0.92470   0.85238   0.00000  Uiso   1.00
C1453  C     0.69299   0.94011   0.87986   0.00000  Uiso   1.00
C1454  C     0.59720   0.95242   0.93572   0.00000  Uiso   1.00
C1455  C     0.65270   0.92470   0.96314   0.00000  Uiso   1.00
C1456  C     0.69298   0.94011   0.93566   0.00000  Uiso   1.00
C1457  C     0.94304   0.74190   0.85233   0.00000  Uiso   1.00
C1458  C     0.90280   0.79758   0.87981   0.00000  Uiso   1.00
C1459  C     0.94304   0.74190   0.96320   0.00000  Uiso   1.00
C1460  C     0.84731   0.82529   0.85238   0.00000  Uiso   1.00
C1461  C     0.80702   0.80989   0.87986   0.00000  Uiso   1.00
C1462  C     0.90280   0.79758   0.93572   0.00000  Uiso   1.00
C1463  C     0.84731   0.82529   0.96314   0.00000  Uiso   1.00
C1464  C     0.80696   0.75809   0.85233   0.00000  Uiso   1.00
C1465  C     0.84720   0.70242   0.87981   0.00000  Uiso   1.00
C1466  C     0.80702   0.80989   0.93566   0.00000  Uiso   1.00
C1467  C     0.80696   0.75810   0.96320   0.00000  Uiso   1.00
C1468  C     0.90270   0.67470   0.85238   0.00000  Uiso   1.00
C1469  C     0.94299   0.69011   0.87986   0.00000  Uiso   1.00
C1470  C     0.84720   0.70242   0.93571   0.00000  Uiso   1.00
C1471  C     0.90270   0.67470   0.96315   0.00000  Uiso   1.00
C1472  C     0.94299   0.69011   0.93566   0.00000  Uiso   1.00
C1473  C     0.19304   0.74190   0.85233   0.00000  Uiso   1.00
C1474  C     0.15280   0.79758   0.87981   0.00000  Uiso   1.00
C1475  C     0.19304   0.74190   0.96320   0.00000  Uiso   1.00
C1476  C     0.09731   0.82529   0.85238   0.00000  Uiso   1.00
C1477  C     0.05701   0.80989   0.87986   0.00000  Uiso   1.00
C1478  C     0.15280   0.79758   0.93572   0.00000  Uiso   1.00
C1479  C     0.09731   0.82530   0.96314   0.00000  Uiso   1.00
C1480  C     0.05696   0.75810   0.85233   0.00000  Uiso   1.00
C1481  C     0.09720   0.70242   0.87981   0.00000  Uiso   1.00
C1482  C     0.05701   0.80989   0.93566   0.00000  Uiso   1.00
C1483  C     0.05696   0.75810   0.96320   0.00000  Uiso   1.00
C1484  C     0.15269   0.67470   0.85238   0.00000  Uiso   1.00
C1485  C     0.19298   0.69011   0.87986   0.00000  Uiso   1.00
C1486  C     0.09720   0.70242   0.93571   0.00000  Uiso   1.00
C1487  C     0.15269   0.67470   0.96314   0.00000  Uiso   1.00
C1488  C     0.19299   0.69011   0.93566   0.00000  Uiso   1.00
C1489  C     0.44304   0.49190   0.85233   0.00000  Uiso   1.00
C1490  C     0.40280   0.54758   0.87981   0.00000  Uiso   1.00
C1491  C     0.44304   0.49190   0.96320   0.00000  Uiso   1.00
C1492  C     0.34731   0.57529   0.85238   0.00000  Uiso   1.00
C1493  C     0.30701   0.55989   0.87986   0.00000  Uiso   1.00
C1494  C     0.40280   0.54758   0.93572   0.00000  Uiso   1.00
C1495  C     0.34731   0.57529   0.96315   0.00000  Uiso   1.00
C1496  C     0.30696   0.50810   0.85233   0.00000  Uiso   1.00
C1497  C     0.34720   0.45242   0.87981   0.00000  Uiso   1.00
C1498  C     0.30701   0.55989   0.93566   0.00000  Uiso   1.00
C1499  C     0.30696   0.50810   0.96320   0.00000  Uiso   1.00
C1500  C     0.40269   0.42470   0.85238   0.00000  Uiso   1.00
C1501  C     0.44299   0.44011   0.87986   0.00000  Uiso   1.00
C1502  C     0.34720   0.45242   0.93571   0.00000  Uiso   1.00
C1503  C     0.40269   0.42470   0.96315   0.00000  Uiso   1.00
C1504  C     0.44299   0.44011   0.93566   0.00000  Uiso   1.00
C1505  C     0.69304   0.24190   0.85233   0.00000  Uiso   1.00
C1506  C     0.65280   0.29758   0.87981   0.00000  Uiso   1.00
C1507  C     0.69304   0.24190   0.96320   0.00000  Uiso   1.00
C1508  C     0.59731   0.32529   0.85238   0.00000  Uiso   1.00
C1509  C     0.55701   0.30989   0.87986   0.00000  Uiso   1.00
C1510  C     0.65280   0.29758   0.93571   0.00000  Uiso   1.00
C1511  C     0.59731   0.32529   0.96314   0.00000  Uiso   1.00
C1512  C     0.55696   0.25810   0.85233   0.00000  Uiso   1.00
C1513  C     0.59720   0.20242   0.87981   0.00000  Uiso   1.00
C1514  C     0.55702   0.30989   0.93566   0.00000  Uiso   1.00
C1515  C     0.55696   0.25810   0.96320   0.00000  Uiso   1.00
C1516  C     0.65270   0.17470   0.85238   0.00000  Uiso   1.00
C1517  C     0.69299   0.19011   0.87986   0.00000  Uiso   1.00
C1518  C     0.59720   0.20242   0.93571   0.00000  Uiso   1.00
C1519  C     0.65270   0.17470   0.96314   0.00000  Uiso   1.00
C1520  C     0.69299   0.19011   0.93566   0.00000  Uiso   1.00
C1521  C     0.94304   0.99190   0.85233   0.00000  Uiso   1.00
C1522  C     0.90280   0.04758   0.87981   0.00000  Uiso   1.00
C1523  C     0.94304   0.99190   0.96320   0.00000  Uiso   1.00
C1524  C     0.84731   0.07529   0.85238   0.00000  Uiso   1.00
C1525  C     0.80702   0.05989   0.87986   0.00000  Uiso   1.00
C1526  C     0.90280   0.04758   0.93571   0.00000  Uiso   1.00
C1527  C     0.84731   0.07529   0.96314   0.00000  Uiso   1.00
C1528  C     0.80696   0.00809   0.85233   0.00000  Uiso   1.00
C1529  C     0.84720   0.95242   0.87981   0.00000  Uiso   1.00
C1530  C     0.80702   0.05989   0.93566   0.00000  Uiso   1.00
C1531  C     0.80696   0.00810   0.96320   0.00000  Uiso   1.00
C1532  C     0.90270   0.92470   0.85238   0.00000  Uiso   1.00
C1533  C     0.94299   0.94011   0.87986   0.00000  Uiso   1.00
C1534  C     0.84720   0.95242   0.93571   0.00000  Uiso   1.00
C1535  C     0.90270   0.92470   0.96315   0.00000  Uiso   1.00
C1536  C     0.94299   0.94011   0.93566   0.00000  Uiso   1.00
loop_
_geom_bond_atom_site_label_1
_geom_bond_atom_site_label_2
_geom_bond_distance
_geom_bond_site_symmetry_2
_ccdc_geom_bond_type
C1     C13     1.496   .     S
C2     C4      1.476   .     S
C2     C6      1.390   .     S
C3     C16     1.496   .     S
C3     C257    1.388   .     S
C4     C5      1.484   .     S
C5     C8      1.496   .     S
C5     C10     1.388   .     S
C6     C7      1.476   .     S
C7     C10     1.484   .     S
C7     C260    1.390   .     S
C9     C12     1.476   .     S
C9     C14     1.390   .     S
C10    C11     1.496   .     S
C11    C264    1.388   .     S
C12    C13     1.484   .     S
C13    C16     1.388   .     S
C14    C15     1.476   .     S
C15    C16     1.484   .     S
C15    C268    1.390   .     S
C17    C18     1.484   .     S
C17    C29     1.496   .     S
C18    C20     1.476   .     S
C18    C22     1.390   .     S
C19    C22     1.484   .     S
C19    C32     1.496   .     S
C19    C273    1.388   .     S
C20    C21     1.484   .     S
C21    C24     1.496   .     S
C21    C26     1.388   .     S
C22    C23     1.476   .     S
C23    C26     1.484   .     S
C23    C276    1.390   .     S
C24    C25     1.484   .     S
C25    C28     1.476   .     S
C25    C30     1.390   .     S
C26    C27     1.496   .     S
C27    C30     1.484   .     S
C27    C280    1.388   .     S
C28    C29     1.484   .     S
C29    C32     1.388   .     S
C30    C31     1.476   .     S
C31    C32     1.484   .     S
C31    C284    1.390   .     S
C33    C34     1.484   .     S
C33    C45     1.496   .     S
C34    C36     1.476   .     S
C34    C38     1.390   .     S
C35    C38     1.484   .     S
C35    C48     1.496   .     S
C35    C289    1.388   .     S
C36    C37     1.484   .     S
C37    C40     1.496   .     S
C37    C42     1.388   .     S
C38    C39     1.476   .     S
C39    C42     1.484   .     S
C39    C292    1.390   .     S
C40    C41     1.484   .     S
C41    C44     1.476   .     S
C41    C46     1.390   .     S
C42    C43     1.496   .     S
C43    C46     1.484   .     S
C43    C296    1.388   .     S
C44    C45     1.484   .     S
C45    C48     1.388   .     S
C46    C47     1.476   .     S
C47    C48     1.484   .     S
C47    C300    1.390   .     S
C49    C50     1.484   .     S
C49    C61     1.496   .     S
C50    C52     1.476   .     S
C50    C54     1.390   .     S
C51    C54     1.484   .     S
C51    C64     1.496   .     S
C51    C305    1.388   .     S
C52    C53     1.484   .     S
C53    C56     1.496   .     S
C53    C58     1.388   .     S
C54    C55     1.476   .     S
C55    C58     1.484   .     S
C55    C308    1.390   .     S
C56    C57     1.484   .     S
C57    C60     1.476   .     S
C57    C62     1.390   .     S
C58    C59     1.496   .     S
C59    C62     1.484   .     S
C59    C312    1.388   .     S
C60    C61     1.484   .     S
C61    C64     1.388   .     S
C62    C63     1.476   .     S
C63    C64     1.484   .     S
C63    C316    1.390   .     S
C65    C66     1.484   .     S
C65    C77     1.496   .     S
C66    C68     1.476   .     S
C66    C70     1.390   .     S
C67    C70     1.484   .     S
C67    C80     1.496   .     S
C67    C321    1.388   .     S
C68    C69     1.484   .     S
C69    C72     1.496   .     S
C69    C74     1.388   .     S
C70    C71     1.476   .     S
C71    C74     1.484   .     S
C71    C324    1.390   .     S
C72    C73     1.484   .     S
C73    C76     1.476   .     S
C73    C78     1.390   .     S
C74    C75     1.496   .     S
C75    C78     1.484   .     S
C75    C328    1.388   .     S
C76    C77     1.484   .     S
C77    C80     1.388   .     S
C78    C79     1.476   .     S
C79    C80     1.484   .     S
C79    C332    1.390   .     S
C81    C93     1.496   .     S
C82    C84     1.476   .     S
C82    C86     1.390   .     S
C83    C96     1.496   .     S
C83    C337    1.388   .     S
C84    C85     1.484   .     S
C85    C88     1.496   .     S
C85    C90     1.388   .     S
C86    C87     1.476   .     S
C87    C90     1.484   .     S
C87    C340    1.390   .     S
C89    C92     1.476   .     S
C89    C94     1.390   .     S
C90    C91     1.496   .     S
C91    C344    1.388   .     S
C92    C93     1.484   .     S
C93    C96     1.388   .     S
C94    C95     1.476   .     S
C95    C96     1.484   .     S
C95    C348    1.390   .     S
C97    C98     1.484   .     S
C97    C109    1.496   .     S
C98    C100    1.476   .     S
C98    C102    1.390   .     S
C99    C102    1.484   .     S
C99    C112    1.496   .     S
C99    C353    1.388   .     S
C100   C101    1.484   .     S
C101   C104    1.496   .     S
C101   C106    1.388   .     S
C102   C103    1.476   .     S
C103   C106    1.484   .     S
C103   C356    1.390   .     S
C104   C105    1.484   .     S
C105   C108    1.476   .     S
C105   C110    1.390   .     S
C106   C107    1.496   .     S
C107   C110    1.484   .     S
C107   C360    1.388   .     S
C108   C109    1.484   .     S
C109   C112    1.388   .     S
C110   C111    1.476   .     S
C111   C112    1.484   .     S
C111   C364    1.390   .     S
C113   C114    1.484   .     S
C113   C125    1.496   .     S
C114   C116    1.476   .     S
C114   C118    1.390   .     S
C115   C118    1.484   .     S
C115   C128    1.496   .     S
C115   C369    1.388   .     S
C116   C117    1.484   .     S
C117   C120    1.496   .     S
C117   C122    1.388   .     S
C118   C119    1.476   .     S
C119   C122    1.484   .     S
C119   C372    1.390   .     S
C120   C121    1.484   .     S
C121   C124    1.476   .     S
C121   C126    1.390   .     S
C122   C123    1.496   .     S
C123   C126    1.484   .     S
C123   C376    1.388   .     S
C124   C125    1.484   .     S
C125   C128    1.388   .     S
C126   C127    1.476   .     S
C127   C128    1.484   .     S
C127   C380    1.390   .     S
C129   C130    1.484   .     S
C129   C141    1.496   .     S
C130   C132    1.476   .     S
C130   C134    1.390   .     S
C131   C134    1.484   .     S
C131   C144    1.496   .     S
C131   C385    1.388   .     S
C132   C133    1.484   .     S
C133   C136    1.496   .     S
C133   C138    1.388   .     S
C134   C135    1.476   .     S
C135   C138    1.484   .     S
C135   C388    1.390   .     S
C136   C137    1.484   .     S
C137   C140    1.476   .     S
C137   C142    1.390   .     S
C138   C139    1.496   .     S
C139   C142    1.484   .     S
C139   C392    1.388   .     S
C140   C141    1.484   .     S
C141   C144    1.388   .     S
C142   C143    1.476   .     S
C143   C144    1.484   .     S
C143   C396    1.390   .     S
C145   C146    1.484   .     S
C145   C157    1.496   .     S
C146   C148    1.476   .     S
C146   C150    1.390   .     S
C147   C150    1.484   .     S
C147   C160    1.496   .     S
C147   C401    1.388   .     S
C148   C149    1.484   .     S
C149   C152    1.496   .     S
C149   C154    1.388   .     S
C150   C151    1.476   .     S
C151   C154    1.484   .     S
C151   C404    1.390   .     S
C152   C153    1.484   .     S
C153   C156    1.476   .     S
C153   C158    1.390   .     S
C154   C155    1.496   .     S
C155   C158    1.484   .     S
C155   C408    1.388   .     S
C156   C157    1.484   .     S
C157   C160    1.388   .     S
C158   C159    1.476   .     S
C159   C160    1.484   .     S
C159   C412    1.390   .     S
C161   C173    1.496   .     S
C162   C164    1.476   .     S
C162   C166    1.390   .     S
C163   C176    1.496   .     S
C163   C417    1.388   .     S
C164   C165    1.484   .     S
C165   C168    1.496   .     S
C165   C170    1.388   .     S
C166   C167    1.476   .     S
C167   C170    1.484   .     S
C167   C420    1.390   .     S
C169   C172    1.476   .     S
C169   C174    1.390   .     S
C170   C171    1.496   .     S
C171   C424    1.388   .     S
C172   C173    1.484   .     S
C173   C176    1.388   .     S
C174   C175    1.476   .     S
C175   C176    1.484   .     S
C175   C428    1.390   .     S
C177   C178    1.484   .     S
C177   C189    1.496   .     S
C178   C180    1.476   .     S
C178   C182    1.390   .     S
C179   C182    1.484   .     S
C179   C192    1.496   .     S
C179   C433    1.388   .     S
C180   C181    1.484   .     S
C181   C184    1.496   .     S
C181   C186    1.388   .     S
C182   C183    1.476   .     S
C183   C186    1.484   .     S
C183   C436    1.390   .     S
C184   C185    1.484   .     S
C185   C188    1.476   .     S
C185   C190    1.390   .     S
C186   C187    1.496   .     S
C187   C190    1.484   .     S
C187   C440    1.388   .     S
C188   C189    1.484   .     S
C189   C192    1.388   .     S
C190   C191    1.476   .     S
C191   C192    1.484   .     S
C191   C444    1.390   .     S
C193   C194    1.484   .     S
C193   C205    1.496   .     S
C194   C196    1.476   .     S
C194   C198    1.390   .     S
C195   C198    1.484   .     S
C195   C208    1.496   .     S
C195   C449    1.388   .     S
C196   C197    1.484   .     S
C197   C200    1.496   .     S
C197   C202    1.388   .     S
C198   C199    1.476   .     S
C199   C202    1.484   .     S
C199   C452    1.390   .     S
C200   C201    1.484   .     S
C201   C204    1.476   .     S
C201   C206    1.390   .     S
C202   C203    1.496   .     S
C203   C206    1.484   .     S
C203   C456    1.388   .     S
C204   C205    1.484   .     S
C205   C208    1.388   .     S
C206   C207    1.476   .     S
C207   C208    1.484   .     S
C207   C460    1.390   .     S
C209   C210    1.484   .     S
C209   C221    1.496   .     S
C210   C212    1.476   .     S
C210   C214    1.390   .     S
C211   C214    1.484   .     S
C211   C224    1.496   .     S
C211   C465    1.388   .     S
C212   C213    1.484   .     S
C213   C216    1.496   .     S
C213   C218    1.388   .     S
C214   C215    1.476   .     S
C215   C218    1.484   .     S
C215   C468    1.390   .     S
C216   C217    1.484   .     S
C217   C220    1.476   .     S
C217   C222    1.390   .     S
C218   C219    1.496   .     S
C219   C222    1.484   .     S
C219   C472    1.388   .     S
C220   C221    1.484   .     S
C221   C224    1.388   .     S
C222   C223    1.476   .     S
C223   C224    1.484   .     S
C223   C476    1.390   .     S
C225   C226    1.484   .     S
C225   C237    1.496   .     S
C226   C228    1.476   .     S
C226   C230    1.390   .     S
C227   C230    1.484   .     S
C227   C240    1.496   .     S
C227   C481    1.388   .     S
C228   C229    1.484   .     S
C229   C232    1.496   .     S
C229   C234    1.388   .     S
C230   C231    1.476   .     S
C231   C234    1.484   .     S
C231   C484    1.390   .     S
C232   C233    1.484   .     S
C233   C236    1.476   .     S
C233   C238    1.390   .     S
C234   C235    1.496   .     S
C235   C238    1.484   .     S
C235   C488    1.388   .     S
C236   C237    1.484   .     S
C237   C240    1.388   .     S
C238   C239    1.476   .     S
C239   C240    1.484   .     S
C239   C492    1.390   .     S
C241   C253    1.496   .     S
C242   C244    1.476   .     S
C242   C246    1.390   .     S
C243   C256    1.496   .     S
C243   C497    1.388   .     S
C244   C245    1.484   .     S
C245   C248    1.496   .     S
C245   C250    1.388   .     S
C246   C247    1.476   .     S
C247   C250    1.484   .     S
C247   C500    1.390   .     S
C249   C252    1.476   .     S
C249   C254    1.390   .     S
C250   C251    1.496   .     S
C251   C504    1.388   .     S
C252   C253    1.484   .     S
C253   C256    1.388   .     S
C254   C255    1.476   .     S
C255   C256    1.484   .     S
C255   C508    1.390   .     S
C257   C269    1.496   .     S
C258   C260    1.476   .     S
C258   C262    1.390   .     S
C259   C513    1.388   .     S
C259   C272    1.496   .     S
C260   C261    1.484   .     S
C261   C264    1.496   .     S
C261   C266    1.388   .     S
C262   C263    1.476   .     S
C263   C516    1.390   .     S
C263   C266    1.484   .     S
C265   C268    1.476   .     S
C265   C270    1.390   .     S
C266   C267    1.496   .     S
C267   C520    1.388   .     S
C268   C269    1.484   .     S
C269   C272    1.388   .     S
C270   C271    1.476   .     S
C271   C524    1.390   .     S
C271   C272    1.484   .     S
C273   C274    1.484   .     S
C273   C285    1.496   .     S
C274   C276    1.476   .     S
C274   C278    1.390   .     S
C275   C529    1.388   .     S
C275   C278    1.484   .     S
C275   C288    1.496   .     S
C276   C277    1.484   .     S
C277   C280    1.496   .     S
C277   C282    1.388   .     S
C278   C279    1.476   .     S
C279   C532    1.390   .     S
C279   C282    1.484   .     S
C280   C281    1.484   .     S
C281   C284    1.476   .     S
C281   C286    1.390   .     S
C282   C283    1.496   .     S
C283   C536    1.388   .     S
C283   C286    1.484   .     S
C284   C285    1.484   .     S
C285   C288    1.388   .     S
C286   C287    1.476   .     S
C287   C540    1.390   .     S
C287   C288    1.484   .     S
C289   C290    1.484   .     S
C289   C301    1.496   .     S
C290   C292    1.476   .     S
C290   C294    1.390   .     S
C291   C545    1.388   .     S
C291   C294    1.484   .     S
C291   C304    1.496   .     S
C292   C293    1.484   .     S
C293   C296    1.496   .     S
C293   C298    1.388   .     S
C294   C295    1.476   .     S
C295   C548    1.390   .     S
C295   C298    1.484   .     S
C296   C297    1.484   .     S
C297   C300    1.476   .     S
C297   C302    1.390   .     S
C298   C299    1.496   .     S
C299   C552    1.388   .     S
C299   C302    1.484   .     S
C300   C301    1.484   .     S
C301   C304    1.388   .     S
C302   C303    1.476   .     S
C303   C556    1.390   .     S
C303   C304    1.484   .     S
C305   C306    1.484   .     S
C305   C317    1.496   .     S
C306   C308    1.476   .     S
C306   C310    1.390   .     S
C307   C561    1.388   .     S
C307   C310    1.484   .     S
C307   C320    1.496   .     S
C308   C309    1.484   .     S
C309   C312    1.496   .     S
C309   C314    1.388   .     S
C310   C311    1.476   .     S
C311   C564    1.390   .     S
C311   C314    1.484   .     S
C312   C313    1.484   .     S
C313   C316    1.476   .     S
C313   C318    1.390   .     S
C314   C315    1.496   .     S
C315   C568    1.388   .     S
C315   C318    1.484   .     S
C316   C317    1.484   .     S
C317   C320    1.388   .     S
C318   C319    1.476   .     S
C319   C572    1.390   .     S
C319   C320    1.484   .     S
C321   C322    1.484   .     S
C321   C333    1.496   .     S
C322   C324    1.476   .     S
C322   C326    1.390   .     S
C323   C577    1.388   .     S
C323   C326    1.484   .     S
C323   C336    1.496   .     S
C324   C325    1.484   .     S
C325   C328    1.496   .     S
C325   C330    1.388   .     S
C326   C327    1.476   .     S
C327   C580    1.390   .     S
C327   C330    1.484   .     S
C328   C329    1.484   .     S
C329   C332    1.476   .     S
C329   C334    1.390   .     S
C330   C331    1.496   .     S
C331   C584    1.388   .     S
C331   C334    1.484   .     S
C332   C333    1.484   .     S
C333   C336    1.388   .     S
C334   C335    1.476   .     S
C335   C588    1.390   .     S
C335   C336    1.484   .     S
C337   C349    1.496   .     S
C338   C340    1.476   .     S
C338   C342    1.390   .     S
C339   C593    1.388   .     S
C339   C352    1.496   .     S
C340   C341    1.484   .     S
C341   C344    1.496   .     S
C341   C346    1.388   .     S
C342   C343    1.476   .     S
C343   C596    1.390   .     S
C343   C346    1.484   .     S
C345   C348    1.476   .     S
C345   C350    1.390   .     S
C346   C347    1.496   .     S
C347   C600    1.388   .     S
C348   C349    1.484   .     S
C349   C352    1.388   .     S
C350   C351    1.476   .     S
C351   C604    1.390   .     S
C351   C352    1.484   .     S
C353   C354    1.484   .     S
C353   C365    1.496   .     S
C354   C356    1.476   .     S
C354   C358    1.390   .     S
C355   C609    1.388   .     S
C355   C358    1.484   .     S
C355   C368    1.496   .     S
C356   C357    1.484   .     S
C357   C360    1.496   .     S
C357   C362    1.388   .     S
C358   C359    1.476   .     S
C359   C612    1.390   .     S
C359   C362    1.484   .     S
C360   C361    1.484   .     S
C361   C364    1.476   .     S
C361   C366    1.390   .     S
C362   C363    1.496   .     S
C363   C616    1.388   .     S
C363   C366    1.484   .     S
C364   C365    1.484   .     S
C365   C368    1.388   .     S
C366   C367    1.476   .     S
C367   C620    1.390   .     S
C367   C368    1.484   .     S
C369   C370    1.484   .     S
C369   C381    1.496   .     S
C370   C372    1.476   .     S
C370   C374    1.390   .     S
C371   C625    1.388   .     S
C371   C374    1.484   .     S
C371   C384    1.496   .     S
C372   C373    1.484   .     S
C373   C376    1.496   .     S
C373   C378    1.388   .     S
C374   C375    1.476   .     S
C375   C628    1.390   .     S
C375   C378    1.484   .     S
C376   C377    1.484   .     S
C377   C380    1.476   .     S
C377   C382    1.390   .     S
C378   C379    1.496   .     S
C379   C632    1.388   .     S
C379   C382    1.484   .     S
C380   C381    1.484   .     S
C381   C384    1.388   .     S
C382   C383    1.476   .     S
C383   C636    1.390   .     S
C383   C384    1.484   .     S
C385   C386    1.484   .     S
C385   C397    1.496   .     S
C386   C388    1.476   .     S
C386   C390    1.390   .     S
C387   C641    1.388   .     S
C387   C390    1.484   .     S
C387   C400    1.496   .     S
C388   C389    1.484   .     S
C389   C392    1.496   .     S
C389   C394    1.388   .     S
C390   C391    1.476   .     S
C391   C644    1.390   .     S
C391   C394    1.484   .     S
C392   C393    1.484   .     S
C393   C396    1.476   .     S
C393   C398    1.390   .     S
C394   C395    1.496   .     S
C395   C648    1.388   .     S
C395   C398    1.484   .     S
C396   C397    1.484   .     S
C397   C400    1.388   .     S
C398   C399    1.476   .     S
C399   C652    1.390   .     S
C399   C400    1.484   .     S
C401   C402    1.484   .     S
C401   C413    1.496   .     S
C402   C404    1.476   .     S
C402   C406    1.390   .     S
C403   C657    1.388   .     S
C403   C406    1.484   .     S
C403   C416    1.496   .     S
C404   C405    1.484   .     S
C405   C408    1.496   .     S
C405   C410    1.388   .     S
C406   C407    1.476   .     S
C407   C660    1.390   .     S
C407   C410    1.484   .     S
C408   C409    1.484   .     S
C409   C412    1.476   .     S
C409   C414    1.390   .     S
C410   C411    1.496   .     S
C411   C664    1.388   .     S
C411   C414    1.484   .     S
C412   C413    1.484   .     S
C413   C416    1.388   .     S
C414   C415    1.476   .     S
C415   C668    1.390   .     S
C415   C416    1.484   .     S
C417   C429    1.496   .     S
C418   C420    1.476   .     S
C418   C422    1.390   .     S
C419   C673    1.388   .     S
C419   C432    1.496   .     S
C420   C421    1.484   .     S
C421   C424    1.496   .     S
C421   C426    1.388   .     S
C422   C423    1.476   .     S
C423   C676    1.390   .     S
C423   C426    1.484   .     S
C425   C428    1.476   .     S
C425   C430    1.390   .     S
C426   C427    1.496   .     S
C427   C680    1.388   .     S
C428   C429    1.484   .     S
C429   C432    1.388   .     S
C430   C431    1.476   .     S
C431   C684    1.390   .     S
C431   C432    1.484   .     S
C433   C434    1.484   .     S
C433   C445    1.496   .     S
C434   C436    1.476   .     S
C434   C438    1.390   .     S
C435   C689    1.388   .     S
C435   C438    1.484   .     S
C435   C448    1.496   .     S
C436   C437    1.484   .     S
C437   C440    1.496   .     S
C437   C442    1.388   .     S
C438   C439    1.476   .     S
C439   C692    1.390   .     S
C439   C442    1.484   .     S
C440   C441    1.484   .     S
C441   C444    1.476   .     S
C441   C446    1.390   .     S
C442   C443    1.496   .     S
C443   C696    1.388   .     S
C443   C446    1.484   .     S
C444   C445    1.484   .     S
C445   C448    1.388   .     S
C446   C447    1.476   .     S
C447   C700    1.390   .     S
C447   C448    1.484   .     S
C449   C450    1.484   .     S
C449   C461    1.496   .     S
C450   C452    1.476   .     S
C450   C454    1.390   .     S
C451   C705    1.388   .     S
C451   C454    1.484   .     S
C451   C464    1.496   .     S
C452   C453    1.484   .     S
C453   C456    1.496   .     S
C453   C458    1.388   .     S
C454   C455    1.476   .     S
C455   C708    1.390   .     S
C455   C458    1.484   .     S
C456   C457    1.484   .     S
C457   C460    1.476   .     S
C457   C462    1.390   .     S
C458   C459    1.496   .     S
C459   C712    1.388   .     S
C459   C462    1.484   .     S
C460   C461    1.484   .     S
C461   C464    1.388   .     S
C462   C463    1.476   .     S
C463   C716    1.390   .     S
C463   C464    1.484   .     S
C465   C466    1.484   .     S
C465   C477    1.496   .     S
C466   C468    1.476   .     S
C466   C470    1.390   .     S
C467   C721    1.388   .     S
C467   C470    1.484   .     S
C467   C480    1.496   .     S
C468   C469    1.484   .     S
C469   C472    1.496   .     S
C469   C474    1.388   .     S
C470   C471    1.476   .     S
C471   C724    1.390   .     S
C471   C474    1.484   .     S
C472   C473    1.484   .     S
C473   C476    1.476   .     S
C473   C478    1.390   .     S
C474   C475    1.496   .     S
C475   C728    1.388   .     S
C475   C478    1.484   .     S
C476   C477    1.484   .     S
C477   C480    1.388   .     S
C478   C479    1.476   .     S
C479   C732    1.390   .     S
C479   C480    1.484   .     S
C481   C482    1.484   .     S
C481   C493    1.496   .     S
C482   C484    1.476   .     S
C482   C486    1.390   .     S
C483   C737    1.388   .     S
C483   C486    1.484   .     S
C483   C496    1.496   .     S
C484   C485    1.484   .     S
C485   C488    1.496   .     S
C485   C490    1.388   .     S
C486   C487    1.476   .     S
C487   C740    1.390   .     S
C487   C490    1.484   .     S
C488   C489    1.484   .     S
C489   C492    1.476   .     S
C489   C494    1.390   .     S
C490   C491    1.496   .     S
C491   C744    1.388   .     S
C491   C494    1.484   .     S
C492   C493    1.484   .     S
C493   C496    1.388   .     S
C494   C495    1.476   .     S
C495   C748    1.390   .     S
C495   C496    1.484   .     S
C497   C509    1.496   .     S
C498   C500    1.476   .     S
C498   C502    1.390   .     S
C499   C753    1.388   .     S
C499   C512    1.496   .     S
C500   C501    1.484   .     S
C501   C504    1.496   .     S
C501   C506    1.388   .     S
C502   C503    1.476   .     S
C503   C756    1.390   .     S
C503   C506    1.484   .     S
C505   C508    1.476   .     S
C505   C510    1.390   .     S
C506   C507    1.496   .     S
C507   C760    1.388   .     S
C508   C509    1.484   .     S
C509   C512    1.388   .     S
C510   C511    1.476   .     S
C511   C764    1.390   .     S
C511   C512    1.484   .     S
C513   C525    1.496   .     S
C514   C516    1.476   .     S
C514   C518    1.390   .     S
C515   C528    1.496   .     S
C515   C769    1.388   .     S
C516   C517    1.484   .     S
C517   C520    1.496   .     S
C517   C522    1.388   .     S
C518   C519    1.476   .     S
C519   C522    1.484   .     S
C519   C772    1.390   .     S
C521   C524    1.476   .     S
C521   C526    1.390   .     S
C522   C523    1.496   .     S
C523   C776    1.388   .     S
C524   C525    1.484   .     S
C525   C528    1.388   .     S
C526   C527    1.476   .     S
C527   C528    1.484   .     S
C527   C780    1.390   .     S
C529   C530    1.484   .     S
C529   C541    1.496   .     S
C530   C532    1.476   .     S
C530   C534    1.390   .     S
C531   C534    1.484   .     S
C531   C544    1.496   .     S
C531   C785    1.388   .     S
C532   C533    1.484   .     S
C533   C536    1.496   .     S
C533   C538    1.388   .     S
C534   C535    1.476   .     S
C535   C538    1.484   .     S
C535   C788    1.390   .     S
C536   C537    1.484   .     S
C537   C540    1.476   .     S
C537   C542    1.390   .     S
C538   C539    1.496   .     S
C539   C542    1.484   .     S
C539   C792    1.388   .     S
C540   C541    1.484   .     S
C541   C544    1.388   .     S
C542   C543    1.476   .     S
C543   C544    1.484   .     S
C543   C796    1.390   .     S
C545   C546    1.484   .     S
C545   C557    1.496   .     S
C546   C548    1.476   .     S
C546   C550    1.390   .     S
C547   C550    1.484   .     S
C547   C560    1.496   .     S
C547   C801    1.388   .     S
C548   C549    1.484   .     S
C549   C552    1.496   .     S
C549   C554    1.388   .     S
C550   C551    1.476   .     S
C551   C554    1.484   .     S
C551   C804    1.390   .     S
C552   C553    1.484   .     S
C553   C556    1.476   .     S
C553   C558    1.390   .     S
C554   C555    1.496   .     S
C555   C558    1.484   .     S
C555   C808    1.388   .     S
C556   C557    1.484   .     S
C557   C560    1.388   .     S
C558   C559    1.476   .     S
C559   C560    1.484   .     S
C559   C812    1.390   .     S
C561   C562    1.484   .     S
C561   C573    1.496   .     S
C562   C564    1.476   .     S
C562   C566    1.390   .     S
C563   C566    1.484   .     S
C563   C576    1.496   .     S
C563   C817    1.388   .     S
C564   C565    1.484   .     S
C565   C568    1.496   .     S
C565   C570    1.388   .     S
C566   C567    1.476   .     S
C567   C570    1.484   .     S
C567   C820    1.390   .     S
C568   C569    1.484   .     S
C569   C572    1.476   .     S
C569   C574    1.390   .     S
C570   C571    1.496   .     S
C571   C574    1.484   .     S
C571   C824    1.388   .     S
C572   C573    1.484   .     S
C573   C576    1.388   .     S
C574   C575    1.476   .     S
C575   C576    1.484   .     S
C575   C828    1.390   .     S
C577   C578    1.484   .     S
C577   C589    1.496   .     S
C578   C580    1.476   .     S
C578   C582    1.390   .     S
C579   C582    1.484   .     S
C579   C592    1.496   .     S
C579   C833    1.388   .     S
C580   C581    1.484   .     S
C581   C584    1.496   .     S
C581   C586    1.388   .     S
C582   C583    1.476   .     S
C583   C586    1.484   .     S
C583   C836    1.390   .     S
C584   C585    1.484   .     S
C585   C588    1.476   .     S
C585   C590    1.390   .     S
C586   C587    1.496   .     S
C587   C590    1.484   .     S
C587   C840    1.388   .     S
C588   C589    1.484   .     S
C589   C592    1.388   .     S
C590   C591    1.476   .     S
C591   C592    1.484   .     S
C591   C844    1.390   .     S
C593   C605    1.496   .     S
C594   C596    1.476   .     S
C594   C598    1.390   .     S
C595   C608    1.496   .     S
C595   C849    1.388   .     S
C596   C597    1.484   .     S
C597   C600    1.496   .     S
C597   C602    1.388   .     S
C598   C599    1.476   .     S
C599   C602    1.484   .     S
C599   C852    1.390   .     S
C601   C604    1.476   .     S
C601   C606    1.390   .     S
C602   C603    1.496   .     S
C603   C856    1.388   .     S
C604   C605    1.484   .     S
C605   C608    1.388   .     S
C606   C607    1.476   .     S
C607   C608    1.484   .     S
C607   C860    1.390   .     S
C609   C610    1.484   .     S
C609   C621    1.496   .     S
C610   C612    1.476   .     S
C610   C614    1.390   .     S
C611   C614    1.484   .     S
C611   C624    1.496   .     S
C611   C865    1.388   .     S
C612   C613    1.484   .     S
C613   C616    1.496   .     S
C613   C618    1.388   .     S
C614   C615    1.476   .     S
C615   C618    1.484   .     S
C615   C868    1.390   .     S
C616   C617    1.484   .     S
C617   C620    1.476   .     S
C617   C622    1.390   .     S
C618   C619    1.496   .     S
C619   C622    1.484   .     S
C619   C872    1.388   .     S
C620   C621    1.484   .     S
C621   C624    1.388   .     S
C622   C623    1.476   .     S
C623   C624    1.484   .     S
C623   C876    1.390   .     S
C625   C626    1.484   .     S
C625   C637    1.496   .     S
C626   C628    1.476   .     S
C626   C630    1.390   .     S
C627   C630    1.484   .     S
C627   C640    1.496   .     S
C627   C881    1.388   .     S
C628   C629    1.484   .     S
C629   C632    1.496   .     S
C629   C634    1.388   .     S
C630   C631    1.476   .     S
C631   C634    1.484   .     S
C631   C884    1.390   .     S
C632   C633    1.484   .     S
C633   C636    1.476   .     S
C633   C638    1.390   .     S
C634   C635    1.496   .     S
C635   C638    1.484   .     S
C635   C888    1.388   .     S
C636   C637    1.484   .     S
C637   C640    1.388   .     S
C638   C639    1.476   .     S
C639   C640    1.484   .     S
C639   C892    1.390   .     S
C641   C642    1.484   .     S
C641   C653    1.496   .     S
C642   C644    1.476   .     S
C642   C646    1.390   .     S
C643   C646    1.484   .     S
C643   C656    1.496   .     S
C643   C897    1.388   .     S
C644   C645    1.484   .     S
C645   C648    1.496   .     S
C645   C650    1.388   .     S
C646   C647    1.476   .     S
C647   C650    1.484   .     S
C647   C900    1.390   .     S
C648   C649    1.484   .     S
C649   C652    1.476   .     S
C649   C654    1.390   .     S
C650   C651    1.496   .     S
C651   C654    1.484   .     S
C651   C904    1.388   .     S
C652   C653    1.484   .     S
C653   C656    1.388   .     S
C654   C655    1.476   .     S
C655   C656    1.484   .     S
C655   C908    1.390   .     S
C657   C658    1.484   .     S
C657   C669    1.496   .     S
C658   C660    1.476   .     S
C658   C662    1.390   .     S
C659   C662    1.484   .     S
C659   C672    1.496   .     S
C659   C913    1.388   .     S
C660   C661    1.484   .     S
C661   C664    1.496   .     S
C661   C666    1.388   .     S
C662   C663    1.476   .     S
C663   C666    1.484   .     S
C663   C916    1.390   .     S
C664   C665    1.484   .     S
C665   C668    1.476   .     S
C665   C670    1.390   .     S
C666   C667    1.496   .     S
C667   C670    1.484   .     S
C667   C920    1.388   .     S
C668   C669    1.484   .     S
C669   C672    1.388   .     S
C670   C671    1.476   .     S
C671   C672    1.484   .     S
C671   C924    1.390   .     S
C673   C685    1.496   .     S
C674   C676    1.476   .     S
C674   C678    1.390   .     S
C675   C688    1.496   .     S
C675   C929    1.388   .     S
C676   C677    1.484   .     S
C677   C680    1.496   .     S
C677   C682    1.388   .     S
C678   C679    1.476   .     S
C679   C682    1.484   .     S
C679   C932    1.390   .     S
C681   C684    1.476   .     S
C681   C686    1.390   .     S
C682   C683    1.496   .     S
C683   C936    1.388   .     S
C684   C685    1.484   .     S
C685   C688    1.388   .     S
C686   C687    1.476   .     S
C687   C688    1.484   .     S
C687   C940    1.390   .     S
C689   C690    1.484   .     S
C689   C701    1.496   .     S
C690   C692    1.476   .     S
C690   C694    1.390   .     S
C691   C694    1.484   .     S
C691   C704    1.496   .     S
C691   C945    1.388   .     S
C692   C693    1.484   .     S
C693   C696    1.496   .     S
C693   C698    1.388   .     S
C694   C695    1.476   .     S
C695   C698    1.484   .     S
C695   C948    1.390   .     S
C696   C697    1.484   .     S
C697   C700    1.476   .     S
C697   C702    1.390   .     S
C698   C699    1.496   .     S
C699   C702    1.484   .     S
C699   C952    1.388   .     S
C700   C701    1.484   .     S
C701   C704    1.388   .     S
C702   C703    1.476   .     S
C703   C704    1.484   .     S
C703   C956    1.390   .     S
C705   C706    1.484   .     S
C705   C717    1.496   .     S
C706   C708    1.476   .     S
C706   C710    1.390   .     S
C707   C710    1.484   .     S
C707   C720    1.496   .     S
C707   C961    1.388   .     S
C708   C709    1.484   .     S
C709   C712    1.496   .     S
C709   C714    1.388   .     S
C710   C711    1.476   .     S
C711   C714    1.484   .     S
C711   C964    1.390   .     S
C712   C713    1.484   .     S
C713   C716    1.476   .     S
C713   C718    1.390   .     S
C714   C715    1.496   .     S
C715   C718    1.484   .     S
C715   C968    1.388   .     S
C716   C717    1.484   .     S
C717   C720    1.388   .     S
C718   C719    1.476   .     S
C719   C720    1.484   .     S
C719   C972    1.390   .     S
C721   C722    1.484   .     S
C721   C733    1.496   .     S
C722   C724    1.476   .     S
C722   C726    1.390   .     S
C723   C726    1.484   .     S
C723   C736    1.496   .     S
C723   C977    1.388   .     S
C724   C725    1.484   .     S
C725   C728    1.496   .     S
C725   C730    1.388   .     S
C726   C727    1.476   .     S
C727   C730    1.484   .     S
C727   C980    1.390   .     S
C728   C729    1.484   .     S
C729   C732    1.476   .     S
C729   C734    1.390   .     S
C730   C731    1.496   .     S
C731   C734    1.484   .     S
C731   C984    1.388   .     S
C732   C733    1.484   .     S
C733   C736    1.388   .     S
C734   C735    1.476   .     S
C735   C736    1.484   .     S
C735   C988    1.390   .     S
C737   C738    1.484   .     S
C737   C749    1.496   .     S
C738   C740    1.476   .     S
C738   C742    1.390   .     S
C739   C742    1.484   .     S
C739   C752    1.496   .     S
C739   C993    1.388   .     S
C740   C741    1.484   .     S
C741   C744    1.496   .     S
C741   C746    1.388   .     S
C742   C743    1.476   .     S
C743   C746    1.484   .     S
C743   C996    1.390   .     S
C744   C745    1.484   .     S
C745   C748    1.476   .     S
C745   C750    1.390   .     S
C746   C747    1.496   .     S
C747   C750    1.484   .     S
C747   C1000   1.388   .     S
C748   C749    1.484   .     S
C749   C752    1.388   .     S
C750   C751    1.476   .     S
C751   C752    1.484   .     S
C751   C1004   1.390   .     S
C753   C765    1.496   .     S
C754   C756    1.476   .     S
C754   C758    1.390   .     S
C755   C768    1.496   .     S
C755   C1009   1.388   .     S
C756   C757    1.484   .     S
C757   C760    1.496   .     S
C757   C762    1.388   .     S
C758   C759    1.476   .     S
C759   C762    1.484   .     S
C759   C1012   1.390   .     S
C761   C764    1.476   .     S
C761   C766    1.390   .     S
C762   C763    1.496   .     S
C763   C1016   1.388   .     S
C764   C765    1.484   .     S
C765   C768    1.388   .     S
C766   C767    1.476   .     S
C767   C768    1.484   .     S
C767   C1020   1.390   .     S
C769   C781    1.496   .     S
C770   C772    1.476   .     S
C770   C774    1.390   .     S
C771   C784    1.496   .     S
C771   C1025   1.388   .     S
C772   C773    1.484   .     S
C773   C776    1.496   .     S
C773   C778    1.388   .     S
C774   C775    1.476   .     S
C775   C778    1.484   .     S
C775   C1028   1.390   .     S
C777   C780    1.476   .     S
C777   C782    1.390   .     S
C778   C779    1.496   .     S
C779   C1032   1.388   .     S
C780   C781    1.484   .     S
C781   C784    1.388   .     S
C782   C783    1.476   .     S
C783   C784    1.484   .     S
C783   C1036   1.390   .     S
C785   C786    1.484   .     S
C785   C797    1.496   .     S
C786   C788    1.476   .     S
C786   C790    1.390   .     S
C787   C790    1.484   .     S
C787   C800    1.496   .     S
C787   C1041   1.388   .     S
C788   C789    1.484   .     S
C789   C792    1.496   .     S
C789   C794    1.388   .     S
C790   C791    1.476   .     S
C791   C794    1.484   .     S
C791   C1044   1.390   .     S
C792   C793    1.484   .     S
C793   C796    1.476   .     S
C793   C798    1.390   .     S
C794   C795    1.496   .     S
C795   C798    1.484   .     S
C795   C1048   1.388   .     S
C796   C797    1.484   .     S
C797   C800    1.388   .     S
C798   C799    1.476   .     S
C799   C800    1.484   .     S
C799   C1052   1.390   .     S
C801   C802    1.484   .     S
C801   C813    1.496   .     S
C802   C804    1.476   .     S
C802   C806    1.390   .     S
C803   C806    1.484   .     S
C803   C816    1.496   .     S
C803   C1057   1.388   .     S
C804   C805    1.484   .     S
C805   C808    1.496   .     S
C805   C810    1.388   .     S
C806   C807    1.476   .     S
C807   C810    1.484   .     S
C807   C1060   1.390   .     S
C808   C809    1.484   .     S
C809   C812    1.476   .     S
C809   C814    1.390   .     S
C810   C811    1.496   .     S
C811   C814    1.484   .     S
C811   C1064   1.388   .     S
C812   C813    1.484   .     S
C813   C816    1.388   .     S
C814   C815    1.476   .     S
C815   C816    1.484   .     S
C815   C1068   1.390   .     S
C817   C818    1.484   .     S
C817   C829    1.496   .     S
C818   C820    1.476   .     S
C818   C822    1.390   .     S
C819   C822    1.484   .     S
C819   C832    1.496   .     S
C819   C1073   1.388   .     S
C820   C821    1.484   .     S
C821   C824    1.496   .     S
C821   C826    1.388   .     S
C822   C823    1.476   .     S
C823   C826    1.484   .     S
C823   C1076   1.390   .     S
C824   C825    1.484   .     S
C825   C828    1.476   .     S
C825   C830    1.390   .     S
C826   C827    1.496   .     S
C827   C830    1.484   .     S
C827   C1080   1.388   .     S
C828   C829    1.484   .     S
C829   C832    1.388   .     S
C830   C831    1.476   .     S
C831   C832    1.484   .     S
C831   C1084   1.390   .     S
C833   C834    1.484   .     S
C833   C845    1.496   .     S
C834   C836    1.476   .     S
C834   C838    1.390   .     S
C835   C838    1.484   .     S
C835   C848    1.496   .     S
C835   C1089   1.387   .     S
C836   C837    1.484   .     S
C837   C840    1.496   .     S
C837   C842    1.388   .     S
C838   C839    1.476   .     S
C839   C842    1.484   .     S
C839   C1092   1.390   .     S
C840   C841    1.484   .     S
C841   C844    1.476   .     S
C841   C846    1.390   .     S
C842   C843    1.496   .     S
C843   C846    1.484   .     S
C843   C1096   1.388   .     S
C844   C845    1.484   .     S
C845   C848    1.388   .     S
C846   C847    1.476   .     S
C847   C848    1.484   .     S
C847   C1100   1.390   .     S
C849   C861    1.496   .     S
C850   C852    1.476   .     S
C850   C854    1.390   .     S
C851   C864    1.496   .     S
C851   C1105   1.388   .     S
C852   C853    1.484   .     S
C853   C856    1.496   .     S
C853   C858    1.388   .     S
C854   C855    1.476   .     S
C855   C858    1.484   .     S
C855   C1108   1.390   .     S
C857   C860    1.476   .     S
C857   C862    1.390   .     S
C858   C859    1.496   .     S
C859   C1112   1.388   .     S
C860   C861    1.484   .     S
C861   C864    1.388   .     S
C862   C863    1.476   .     S
C863   C864    1.484   .     S
C863   C1116   1.390   .     S
C865   C866    1.484   .     S
C865   C877    1.496   .     S
C866   C868    1.476   .     S
C866   C870    1.390   .     S
C867   C870    1.484   .     S
C867   C880    1.496   .     S
C867   C1121   1.388   .     S
C868   C869    1.484   .     S
C869   C872    1.496   .     S
C869   C874    1.388   .     S
C870   C871    1.476   .     S
C871   C874    1.484   .     S
C871   C1124   1.390   .     S
C872   C873    1.484   .     S
C873   C876    1.476   .     S
C873   C878    1.390   .     S
C874   C875    1.496   .     S
C875   C878    1.484   .     S
C875   C1128   1.388   .     S
C876   C877    1.484   .     S
C877   C880    1.388   .     S
C878   C879    1.476   .     S
C879   C880    1.484   .     S
C879   C1132   1.390   .     S
C881   C882    1.484   .     S
C881   C893    1.496   .     S
C882   C884    1.476   .     S
C882   C886    1.390   .     S
C883   C886    1.484   .     S
C883   C896    1.496   .     S
C883   C1137   1.388   .     S
C884   C885    1.484   .     S
C885   C888    1.496   .     S
C885   C890    1.388   .     S
C886   C887    1.476   .     S
C887   C890    1.484   .     S
C887   C1140   1.390   .     S
C888   C889    1.484   .     S
C889   C892    1.476   .     S
C889   C894    1.390   .     S
C890   C891    1.496   .     S
C891   C894    1.484   .     S
C891   C1144   1.388   .     S
C892   C893    1.484   .     S
C893   C896    1.388   .     S
C894   C895    1.476   .     S
C895   C896    1.484   .     S
C895   C1148   1.390   .     S
C897   C898    1.484   .     S
C897   C909    1.496   .     S
C898   C900    1.476   .     S
C898   C902    1.390   .     S
C899   C902    1.484   .     S
C899   C912    1.496   .     S
C899   C1153   1.388   .     S
C900   C901    1.484   .     S
C901   C904    1.496   .     S
C901   C906    1.388   .     S
C902   C903    1.476   .     S
C903   C906    1.484   .     S
C903   C1156   1.390   .     S
C904   C905    1.484   .     S
C905   C908    1.476   .     S
C905   C910    1.390   .     S
C906   C907    1.496   .     S
C907   C910    1.484   .     S
C907   C1160   1.388   .     S
C908   C909    1.484   .     S
C909   C912    1.388   .     S
C910   C911    1.476   .     S
C911   C912    1.484   .     S
C911   C1164   1.390   .     S
C913   C914    1.484   .     S
C913   C925    1.496   .     S
C914   C916    1.476   .     S
C914   C918    1.390   .     S
C915   C918    1.484   .     S
C915   C928    1.496   .     S
C915   C1169   1.388   .     S
C916   C917    1.484   .     S
C917   C920    1.496   .     S
C917   C922    1.388   .     S
C918   C919    1.476   .     S
C919   C922    1.484   .     S
C919   C1172   1.390   .     S
C920   C921    1.484   .     S
C921   C924    1.476   .     S
C921   C926    1.390   .     S
C922   C923    1.496   .     S
C923   C926    1.484   .     S
C923   C1176   1.388   .     S
C924   C925    1.484   .     S
C925   C928    1.388   .     S
C926   C927    1.476   .     S
C927   C928    1.484   .     S
C927   C1180   1.390   .     S
C929   C941    1.496   .     S
C930   C932    1.476   .     S
C930   C934    1.390   .     S
C931   C944    1.496   .     S
C931   C1185   1.388   .     S
C932   C933    1.484   .     S
C933   C936    1.496   .     S
C933   C938    1.388   .     S
C934   C935    1.476   .     S
C935   C938    1.484   .     S
C935   C1188   1.390   .     S
C937   C940    1.476   .     S
C937   C942    1.390   .     S
C938   C939    1.496   .     S
C939   C1192   1.388   .     S
C940   C941    1.484   .     S
C941   C944    1.388   .     S
C942   C943    1.476   .     S
C943   C944    1.484   .     S
C943   C1196   1.390   .     S
C945   C946    1.484   .     S
C945   C957    1.496   .     S
C946   C948    1.476   .     S
C946   C950    1.390   .     S
C947   C950    1.484   .     S
C947   C960    1.496   .     S
C947   C1201   1.388   .     S
C948   C949    1.484   .     S
C949   C952    1.496   .     S
C949   C954    1.388   .     S
C950   C951    1.476   .     S
C951   C954    1.484   .     S
C951   C1204   1.390   .     S
C952   C953    1.484   .     S
C953   C956    1.476   .     S
C953   C958    1.390   .     S
C954   C955    1.496   .     S
C955   C958    1.484   .     S
C955   C1208   1.388   .     S
C956   C957    1.484   .     S
C957   C960    1.388   .     S
C958   C959    1.476   .     S
C959   C960    1.484   .     S
C959   C1212   1.390   .     S
C961   C962    1.484   .     S
C961   C973    1.496   .     S
C962   C964    1.476   .     S
C962   C966    1.390   .     S
C963   C966    1.484   .     S
C963   C976    1.496   .     S
C963   C1217   1.388   .     S
C964   C965    1.484   .     S
C965   C968    1.496   .     S
C965   C970    1.388   .     S
C966   C967    1.476   .     S
C967   C970    1.484   .     S
C967   C1220   1.390   .     S
C968   C969    1.484   .     S
C969   C972    1.476   .     S
C969   C974    1.390   .     S
C970   C971    1.496   .     S
C971   C974    1.484   .     S
C971   C1224   1.388   .     S
C972   C973    1.484   .     S
C973   C976    1.388   .     S
C974   C975    1.476   .     S
C975   C976    1.484   .     S
C975   C1228   1.390   .     S
C977   C978    1.484   .     S
C977   C989    1.496   .     S
C978   C980    1.476   .     S
C978   C982    1.390   .     S
C979   C982    1.484   .     S
C979   C992    1.496   .     S
C979   C1233   1.388   .     S
C980   C981    1.484   .     S
C981   C984    1.496   .     S
C981   C986    1.388   .     S
C982   C983    1.476   .     S
C983   C986    1.484   .     S
C983   C1236   1.390   .     S
C984   C985    1.484   .     S
C985   C988    1.476   .     S
C985   C990    1.390   .     S
C986   C987    1.496   .     S
C987   C990    1.484   .     S
C987   C1240   1.388   .     S
C988   C989    1.484   .     S
C989   C992    1.388   .     S
C990   C991    1.476   .     S
C991   C992    1.484   .     S
C991   C1244   1.390   .     S
C993   C994    1.484   .     S
C993   C1005   1.496   .     S
C994   C996    1.476   .     S
C994   C998    1.390   .     S
C995   C998    1.484   .     S
C995   C1008   1.496   .     S
C995   C1249   1.388   .     S
C996   C997    1.484   .     S
C997   C1000   1.496   .     S
C997   C1002   1.388   .     S
C998   C999    1.476   .     S
C999   C1002   1.484   .     S
C999   C1252   1.390   .     S
C1000  C1001   1.484   .     S
C1001  C1004   1.476   .     S
C1001  C1006   1.390   .     S
C1002  C1003   1.496   .     S
C1003  C1006   1.484   .     S
C1003  C1256   1.388   .     S
C1004  C1005   1.484   .     S
C1005  C1008   1.388   .     S
C1006  C1007   1.476   .     S
C1007  C1008   1.484   .     S
C1007  C1260   1.390   .     S
C1009  C1021   1.496   .     S
C1010  C1012   1.476   .     S
C1010  C1014   1.390   .     S
C1011  C1024   1.496   .     S
C1011  C1265   1.388   .     S
C1012  C1013   1.484   .     S
C1013  C1016   1.496   .     S
C1013  C1018   1.388   .     S
C1014  C1015   1.476   .     S
C1015  C1018   1.484   .     S
C1015  C1268   1.390   .     S
C1017  C1020   1.476   .     S
C1017  C1022   1.390   .     S
C1018  C1019   1.496   .     S
C1019  C1272   1.388   .     S
C1020  C1021   1.484   .     S
C1021  C1024   1.388   .     S
C1022  C1023   1.476   .     S
C1023  C1024   1.484   .     S
C1023  C1276   1.390   .     S
C1025  C1037   1.496   .     S
C1026  C1030   1.390   .     S
C1026  C1028   1.476   .     S
C1027  C1281   1.388   .     S
C1027  C1040   1.496   .     S
C1028  C1029   1.484   .     S
C1029  C1034   1.388   .     S
C1029  C1032   1.496   .     S
C1030  C1031   1.476   .     S
C1031  C1284   1.390   .     S
C1031  C1034   1.484   .     S
C1033  C1038   1.390   .     S
C1033  C1036   1.476   .     S
C1034  C1035   1.496   .     S
C1035  C1288   1.388   .     S
C1036  C1037   1.484   .     S
C1037  C1040   1.388   .     S
C1038  C1039   1.476   .     S
C1039  C1292   1.390   .     S
C1039  C1040   1.484   .     S
C1041  C1042   1.484   .     S
C1041  C1053   1.496   .     S
C1042  C1046   1.390   .     S
C1042  C1044   1.476   .     S
C1043  C1297   1.388   .     S
C1043  C1046   1.484   .     S
C1043  C1056   1.496   .     S
C1044  C1045   1.484   .     S
C1045  C1050   1.388   .     S
C1045  C1048   1.496   .     S
C1046  C1047   1.476   .     S
C1047  C1300   1.390   .     S
C1047  C1050   1.484   .     S
C1048  C1049   1.484   .     S
C1049  C1054   1.390   .     S
C1049  C1052   1.476   .     S
C1050  C1051   1.496   .     S
C1051  C1304   1.388   .     S
C1051  C1054   1.484   .     S
C1052  C1053   1.484   .     S
C1053  C1056   1.388   .     S
C1054  C1055   1.476   .     S
C1055  C1308   1.390   .     S
C1055  C1056   1.484   .     S
C1057  C1058   1.484   .     S
C1057  C1069   1.496   .     S
C1058  C1062   1.390   .     S
C1058  C1060   1.476   .     S
C1059  C1313   1.388   .     S
C1059  C1062   1.484   .     S
C1059  C1072   1.496   .     S
C1060  C1061   1.484   .     S
C1061  C1066   1.388   .     S
C1061  C1064   1.496   .     S
C1062  C1063   1.476   .     S
C1063  C1316   1.390   .     S
C1063  C1066   1.484   .     S
C1064  C1065   1.484   .     S
C1065  C1070   1.390   .     S
C1065  C1068   1.476   .     S
C1066  C1067   1.496   .     S
C1067  C1320   1.388   .     S
C1067  C1070   1.484   .     S
C1068  C1069   1.484   .     S
C1069  C1072   1.388   .     S
C1070  C1071   1.476   .     S
C1071  C1324   1.390   .     S
C1071  C1072   1.484   .     S
C1073  C1074   1.484   .     S
C1073  C1085   1.496   .     S
C1074  C1078   1.390   .     S
C1074  C1076   1.476   .     S
C1075  C1329   1.388   .     S
C1075  C1078   1.484   .     S
C1075  C1088   1.496   .     S
C1076  C1077   1.484   .     S
C1077  C1082   1.388   .     S
C1077  C1080   1.496   .     S
C1078  C1079   1.476   .     S
C1079  C1332   1.390   .     S
C1079  C1082   1.484   .     S
C1080  C1081   1.484   .     S
C1081  C1086   1.390   .     S
C1081  C1084   1.476   .     S
C1082  C1083   1.496   .     S
C1083  C1336   1.388   .     S
C1083  C1086   1.484   .     S
C1084  C1085   1.484   .     S
C1085  C1088   1.388   .     S
C1086  C1087   1.476   .     S
C1087  C1340   1.390   .     S
C1087  C1088   1.484   .     S
C1089  C1090   1.484   .     S
C1089  C1101   1.496   .     S
C1090  C1094   1.390   .     S
C1090  C1092   1.476   .     S
C1091  C1345   1.388   .     S
C1091  C1094   1.484   .     S
C1091  C1104   1.496   .     S
C1092  C1093   1.484   .     S
C1093  C1098   1.388   .     S
C1093  C1096   1.496   .     S
C1094  C1095   1.476   .     S
C1095  C1348   1.390   .     S
C1095  C1098   1.484   .     S
C1096  C1097   1.484   .     S
C1097  C1102   1.390   .     S
C1097  C1100   1.476   .     S
C1098  C1099   1.496   .     S
C1099  C1352   1.388   .     S
C1099  C1102   1.484   .     S
C1100  C1101   1.484   .     S
C1101  C1104   1.388   .     S
C1102  C1103   1.476   .     S
C1103  C1356   1.390   .     S
C1103  C1104   1.484   .     S
C1105  C1117   1.496   .     S
C1106  C1110   1.390   .     S
C1106  C1108   1.476   .     S
C1107  C1361   1.388   .     S
C1107  C1120   1.496   .     S
C1108  C1109   1.484   .     S
C1109  C1114   1.388   .     S
C1109  C1112   1.496   .     S
C1110  C1111   1.476   .     S
C1111  C1364   1.390   .     S
C1111  C1114   1.484   .     S
C1113  C1118   1.390   .     S
C1113  C1116   1.476   .     S
C1114  C1115   1.496   .     S
C1115  C1368   1.388   .     S
C1116  C1117   1.484   .     S
C1117  C1120   1.388   .     S
C1118  C1119   1.476   .     S
C1119  C1372   1.390   .     S
C1119  C1120   1.484   .     S
C1121  C1122   1.484   .     S
C1121  C1133   1.496   .     S
C1122  C1126   1.390   .     S
C1122  C1124   1.476   .     S
C1123  C1377   1.388   .     S
C1123  C1126   1.484   .     S
C1123  C1136   1.496   .     S
C1124  C1125   1.484   .     S
C1125  C1130   1.388   .     S
C1125  C1128   1.496   .     S
C1126  C1127   1.476   .     S
C1127  C1380   1.390   .     S
C1127  C1130   1.484   .     S
C1128  C1129   1.484   .     S
C1129  C1134   1.390   .     S
C1129  C1132   1.476   .     S
C1130  C1131   1.496   .     S
C1131  C1384   1.388   .     S
C1131  C1134   1.484   .     S
C1132  C1133   1.484   .     S
C1133  C1136   1.388   .     S
C1134  C1135   1.476   .     S
C1135  C1388   1.390   .     S
C1135  C1136   1.484   .     S
C1137  C1138   1.484   .     S
C1137  C1149   1.496   .     S
C1138  C1142   1.390   .     S
C1138  C1140   1.476   .     S
C1139  C1393   1.388   .     S
C1139  C1142   1.484   .     S
C1139  C1152   1.496   .     S
C1140  C1141   1.484   .     S
C1141  C1146   1.388   .     S
C1141  C1144   1.496   .     S
C1142  C1143   1.476   .     S
C1143  C1396   1.390   .     S
C1143  C1146   1.484   .     S
C1144  C1145   1.484   .     S
C1145  C1150   1.390   .     S
C1145  C1148   1.476   .     S
C1146  C1147   1.496   .     S
C1147  C1400   1.388   .     S
C1147  C1150   1.484   .     S
C1148  C1149   1.484   .     S
C1149  C1152   1.388   .     S
C1150  C1151   1.476   .     S
C1151  C1404   1.390   .     S
C1151  C1152   1.484   .     S
C1153  C1154   1.484   .     S
C1153  C1165   1.496   .     S
C1154  C1158   1.390   .     S
C1154  C1156   1.476   .     S
C1155  C1409   1.388   .     S
C1155  C1158   1.484   .     S
C1155  C1168   1.496   .     S
C1156  C1157   1.484   .     S
C1157  C1162   1.388   .     S
C1157  C1160   1.496   .     S
C1158  C1159   1.476   .     S
C1159  C1412   1.390   .     S
C1159  C1162   1.484   .     S
C1160  C1161   1.484   .     S
C1161  C1166   1.390   .     S
C1161  C1164   1.476   .     S
C1162  C1163   1.496   .     S
C1163  C1416   1.388   .     S
C1163  C1166   1.484   .     S
C1164  C1165   1.484   .     S
C1165  C1168   1.388   .     S
C1166  C1167   1.476   .     S
C1167  C1420   1.390   .     S
C1167  C1168   1.484   .     S
C1169  C1170   1.484   .     S
C1169  C1181   1.496   .     S
C1170  C1174   1.390   .     S
C1170  C1172   1.476   .     S
C1171  C1425   1.388   .     S
C1171  C1174   1.484   .     S
C1171  C1184   1.496   .     S
C1172  C1173   1.484   .     S
C1173  C1178   1.388   .     S
C1173  C1176   1.496   .     S
C1174  C1175   1.476   .     S
C1175  C1428   1.390   .     S
C1175  C1178   1.484   .     S
C1176  C1177   1.484   .     S
C1177  C1182   1.390   .     S
C1177  C1180   1.476   .     S
C1178  C1179   1.496   .     S
C1179  C1432   1.388   .     S
C1179  C1182   1.484   .     S
C1180  C1181   1.484   .     S
C1181  C1184   1.388   .     S
C1182  C1183   1.476   .     S
C1183  C1436   1.390   .     S
C1183  C1184   1.484   .     S
C1185  C1197   1.496   .     S
C1186  C1190   1.390   .     S
C1186  C1188   1.476   .     S
C1187  C1441   1.388   .     S
C1187  C1200   1.496   .     S
C1188  C1189   1.484   .     S
C1189  C1194   1.388   .     S
C1189  C1192   1.496   .     S
C1190  C1191   1.476   .     S
C1191  C1444   1.390   .     S
C1191  C1194   1.484   .     S
C1193  C1198   1.390   .     S
C1193  C1196   1.476   .     S
C1194  C1195   1.496   .     S
C1195  C1448   1.388   .     S
C1196  C1197   1.484   .     S
C1197  C1200   1.388   .     S
C1198  C1199   1.476   .     S
C1199  C1452   1.390   .     S
C1199  C1200   1.484   .     S
C1201  C1202   1.484   .     S
C1201  C1213   1.496   .     S
C1202  C1206   1.390   .     S
C1202  C1204   1.476   .     S
C1203  C1457   1.388   .     S
C1203  C1206   1.484   .     S
C1203  C1216   1.496   .     S
C1204  C1205   1.484   .     S
C1205  C1210   1.388   .     S
C1205  C1208   1.496   .     S
C1206  C1207   1.476   .     S
C1207  C1460   1.390   .     S
C1207  C1210   1.484   .     S
C1208  C1209   1.484   .     S
C1209  C1214   1.390   .     S
C1209  C1212   1.476   .     S
C1210  C1211   1.496   .     S
C1211  C1464   1.388   .     S
C1211  C1214   1.484   .     S
C1212  C1213   1.484   .     S
C1213  C1216   1.388   .     S
C1214  C1215   1.476   .     S
C1215  C1468   1.390   .     S
C1215  C1216   1.484   .     S
C1217  C1218   1.484   .     S
C1217  C1229   1.496   .     S
C1218  C1222   1.390   .     S
C1218  C1220   1.476   .     S
C1219  C1473   1.388   .     S
C1219  C1222   1.484   .     S
C1219  C1232   1.496   .     S
C1220  C1221   1.484   .     S
C1221  C1226   1.388   .     S
C1221  C1224   1.496   .     S
C1222  C1223   1.476   .     S
C1223  C1476   1.390   .     S
C1223  C1226   1.484   .     S
C1224  C1225   1.484   .     S
C1225  C1230   1.390   .     S
C1225  C1228   1.476   .     S
C1226  C1227   1.496   .     S
C1227  C1480   1.388   .     S
C1227  C1230   1.484   .     S
C1228  C1229   1.484   .     S
C1229  C1232   1.388   .     S
C1230  C1231   1.476   .     S
C1231  C1484   1.390   .     S
C1231  C1232   1.484   .     S
C1233  C1234   1.484   .     S
C1233  C1245   1.496   .     S
C1234  C1238   1.390   .     S
C1234  C1236   1.476   .     S
C1235  C1489   1.388   .     S
C1235  C1238   1.484   .     S
C1235  C1248   1.496   .     S
C1236  C1237   1.484   .     S
C1237  C1242   1.388   .     S
C1237  C1240   1.496   .     S
C1238  C1239   1.476   .     S
C1239  C1492   1.390   .     S
C1239  C1242   1.484   .     S
C1240  C1241   1.484   .     S
C1241  C1246   1.390   .     S
C1241  C1244   1.476   .     S
C1242  C1243   1.496   .     S
C1243  C1496   1.388   .     S
C1243  C1246   1.484   .     S
C1244  C1245   1.484   .     S
C1245  C1248   1.388   .     S
C1246  C1247   1.476   .     S
C1247  C1500   1.390   .     S
C1247  C1248   1.484   .     S
C1249  C1250   1.484   .     S
C1249  C1261   1.496   .     S
C1250  C1254   1.390   .     S
C1250  C1252   1.476   .     S
C1251  C1505   1.388   .     S
C1251  C1254   1.484   .     S
C1251  C1264   1.496   .     S
C1252  C1253   1.484   .     S
C1253  C1258   1.388   .     S
C1253  C1256   1.496   .     S
C1254  C1255   1.476   .     S
C1255  C1508   1.390   .     S
C1255  C1258   1.484   .     S
C1256  C1257   1.484   .     S
C1257  C1262   1.390   .     S
C1257  C1260   1.476   .     S
C1258  C1259   1.496   .     S
C1259  C1512   1.388   .     S
C1259  C1262   1.484   .     S
C1260  C1261   1.484   .     S
C1261  C1264   1.388   .     S
C1262  C1263   1.476   .     S
C1263  C1516   1.390   .     S
C1263  C1264   1.484   .     S
C1265  C1277   1.496   .     S
C1266  C1270   1.390   .     S
C1266  C1268   1.476   .     S
C1267  C1521   1.388   .     S
C1267  C1280   1.496   .     S
C1268  C1269   1.484   .     S
C1269  C1274   1.388   .     S
C1269  C1272   1.496   .     S
C1270  C1271   1.476   .     S
C1271  C1524   1.390   .     S
C1271  C1274   1.484   .     S
C1273  C1278   1.390   .     S
C1273  C1276   1.476   .     S
C1274  C1275   1.496   .     S
C1275  C1528   1.388   .     S
C1276  C1277   1.484   .     S
C1277  C1280   1.388   .     S
C1278  C1279   1.476   .     S
C1279  C1532   1.390   .     S
C1279  C1280   1.484   .     S
C1281  C1293   1.496   .     S
C1282  C1284   1.476   .     S
C1282  C1286   1.390   .     S
C1283  C1296   1.496   .     S
C1284  C1285   1.484   .     S
C1285  C1288   1.496   .     S
C1285  C1290   1.388   .     S
C1286  C1287   1.476   .     S
C1287  C1290   1.484   .     S
C1289  C1292   1.476   .     S
C1289  C1294   1.390   .     S
C1290  C1291   1.496   .     S
C1292  C1293   1.484   .     S
C1293  C1296   1.388   .     S
C1294  C1295   1.476   .     S
C1295  C1296   1.484   .     S
C1297  C1298   1.484   .     S
C1297  C1309   1.496   .     S
C1298  C1300   1.476   .     S
C1298  C1302   1.390   .     S
C1299  C1302   1.484   .     S
C1299  C1312   1.496   .     S
C1300  C1301   1.484   .     S
C1301  C1304   1.496   .     S
C1301  C1306   1.388   .     S
C1302  C1303   1.476   .     S
C1303  C1306   1.484   .     S
C1304  C1305   1.484   .     S
C1305  C1308   1.476   .     S
C1305  C1310   1.390   .     S
C1306  C1307   1.496   .     S
C1307  C1310   1.484   .     S
C1308  C1309   1.484   .     S
C1309  C1312   1.388   .     S
C1310  C1311   1.476   .     S
C1311  C1312   1.484   .     S
C1313  C1314   1.484   .     S
C1313  C1325   1.496   .     S
C1314  C1316   1.476   .     S
C1314  C1318   1.390   .     S
C1315  C1318   1.484   .     S
C1315  C1328   1.496   .     S
C1316  C1317   1.484   .     S
C1317  C1320   1.496   .     S
C1317  C1322   1.388   .     S
C1318  C1319   1.476   .     S
C1319  C1322   1.484   .     S
C1320  C1321   1.484   .     S
C1321  C1324   1.476   .     S
C1321  C1326   1.390   .     S
C1322  C1323   1.496   .     S
C1323  C1326   1.484   .     S
C1324  C1325   1.484   .     S
C1325  C1328   1.388   .     S
C1326  C1327   1.476   .     S
C1327  C1328   1.484   .     S
C1329  C1330   1.484   .     S
C1329  C1341   1.496   .     S
C1330  C1332   1.476   .     S
C1330  C1334   1.390   .     S
C1331  C1334   1.484   .     S
C1331  C1344   1.496   .     S
C1332  C1333   1.484   .     S
C1333  C1336   1.496   .     S
C1333  C1338   1.388   .     S
C1334  C1335   1.476   .     S
C1335  C1338   1.484   .     S
C1336  C1337   1.484   .     S
C1337  C1340   1.476   .     S
C1337  C1342   1.390   .     S
C1338  C1339   1.496   .     S
C1339  C1342   1.484   .     S
C1340  C1341   1.484   .     S
C1341  C1344   1.388   .     S
C1342  C1343   1.476   .     S
C1343  C1344   1.484   .     S
C1345  C1346   1.484   .     S
C1345  C1357   1.496   .     S
C1346  C1348   1.476   .     S
C1346  C1350   1.390   .     S
C1347  C1350   1.484   .     S
C1347  C1360   1.496   .     S
C1348  C1349   1.484   .     S
C1349  C1352   1.496   .     S
C1349  C1354   1.388   .     S
C1350  C1351   1.476   .     S
C1351  C1354   1.484   .     S
C1352  C1353   1.484   .     S
C1353  C1356   1.476   .     S
C1353  C1358   1.390   .     S
C1354  C1355   1.496   .     S
C1355  C1358   1.484   .     S
C1356  C1357   1.484   .     S
C1357  C1360   1.388   .     S
C1358  C1359   1.476   .     S
C1359  C1360   1.484   .     S
C1361  C1373   1.496   .     S
C1362  C1364   1.476   .     S
C1362  C1366   1.390   .     S
C1363  C1376   1.496   .     S
C1364  C1365   1.484   .     S
C1365  C1368   1.496   .     S
C1365  C1370   1.388   .     S
C1366  C1367   1.476   .     S
C1367  C1370   1.484   .     S
C1369  C1372   1.476   .     S
C1369  C1374   1.390   .     S
C1370  C1371   1.496   .     S
C1372  C1373   1.484   .     S
C1373  C1376   1.388   .     S
C1374  C1375   1.476   .     S
C1375  C1376   1.484   .     S
C1377  C1378   1.484   .     S
C1377  C1389   1.496   .     S
C1378  C1380   1.476   .     S
C1378  C1382   1.390   .     S
C1379  C1382   1.484   .     S
C1379  C1392   1.496   .     S
C1380  C1381   1.484   .     S
C1381  C1384   1.496   .     S
C1381  C1386   1.388   .     S
C1382  C1383   1.476   .     S
C1383  C1386   1.484   .     S
C1384  C1385   1.484   .     S
C1385  C1388   1.476   .     S
C1385  C1390   1.390   .     S
C1386  C1387   1.496   .     S
C1387  C1390   1.484   .     S
C1388  C1389   1.484   .     S
C1389  C1392   1.388   .     S
C1390  C1391   1.476   .     S
C1391  C1392   1.484   .     S
C1393  C1394   1.484   .     S
C1393  C1405   1.496   .     S
C1394  C1396   1.476   .     S
C1394  C1398   1.390   .     S
C1395  C1398   1.484   .     S
C1395  C1408   1.496   .     S
C1396  C1397   1.484   .     S
C1397  C1400   1.496   .     S
C1397  C1402   1.388   .     S
C1398  C1399   1.476   .     S
C1399  C1402   1.484   .     S
C1400  C1401   1.484   .     S
C1401  C1404   1.476   .     S
C1401  C1406   1.390   .     S
C1402  C1403   1.496   .     S
C1403  C1406   1.484   .     S
C1404  C1405   1.484   .     S
C1405  C1408   1.388   .     S
C1406  C1407   1.476   .     S
C1407  C1408   1.484   .     S
C1409  C1410   1.484   .     S
C1409  C1421   1.496   .     S
C1410  C1412   1.476   .     S
C1410  C1414   1.390   .     S
C1411  C1414   1.484   .     S
C1411  C1424   1.496   .     S
C1412  C1413   1.484   .     S
C1413  C1416   1.496   .     S
C1413  C1418   1.388   .     S
C1414  C1415   1.476   .     S
C1415  C1418   1.484   .     S
C1416  C1417   1.484   .     S
C1417  C1420   1.476   .     S
C1417  C1422   1.390   .     S
C1418  C1419   1.496   .     S
C1419  C1422   1.484   .     S
C1420  C1421   1.484   .     S
C1421  C1424   1.388   .     S
C1422  C1423   1.476   .     S
C1423  C1424   1.484   .     S
C1425  C1426   1.484   .     S
C1425  C1437   1.496   .     S
C1426  C1428   1.476   .     S
C1426  C1430   1.390   .     S
C1427  C1430   1.484   .     S
C1427  C1440   1.496   .     S
C1428  C1429   1.484   .     S
C1429  C1432   1.496   .     S
C1429  C1434   1.388   .     S
C1430  C1431   1.476   .     S
C1431  C1434   1.484   .     S
C1432  C1433   1.484   .     S
C1433  C1436   1.476   .     S
C1433  C1438   1.390   .     S
C1434  C1435   1.496   .     S
C1435  C1438   1.484   .     S
C1436  C1437   1.484   .     S
C1437  C1440   1.388   .     S
C1438  C1439   1.476   .     S
C1439  C1440   1.484   .     S
C1441  C1453   1.496   .     S
C1442  C1444   1.476   .     S
C1442  C1446   1.390   .     S
C1443  C1456   1.496   .     S
C1444  C1445   1.484   .     S
C1445  C1448   1.496   .     S
C1445  C1450   1.388   .     S
C1446  C1447   1.476   .     S
C1447  C1450   1.484   .     S
C1449  C1452   1.476   .     S
C1449  C1454   1.390   .     S
C1450  C1451   1.496   .     S
C1452  C1453   1.484   .     S
C1453  C1456   1.388   .     S
C1454  C1455   1.476   .     S
C1455  C1456   1.484   .     S
C1457  C1458   1.484   .     S
C1457  C1469   1.496   .     S
C1458  C1460   1.476   .     S
C1458  C1462   1.390   .     S
C1459  C1462   1.484   .     S
C1459  C1472   1.496   .     S
C1460  C1461   1.484   .     S
C1461  C1464   1.496   .     S
C1461  C1466   1.388   .     S
C1462  C1463   1.476   .     S
C1463  C1466   1.484   .     S
C1464  C1465   1.484   .     S
C1465  C1468   1.476   .     S
C1465  C1470   1.390   .     S
C1466  C1467   1.496   .     S
C1467  C1470   1.484   .     S
C1468  C1469   1.484   .     S
C1469  C1472   1.388   .     S
C1470  C1471   1.476   .     S
C1471  C1472   1.484   .     S
C1473  C1474   1.484   .     S
C1473  C1485   1.496   .     S
C1474  C1476   1.476   .     S
C1474  C1478   1.390   .     S
C1475  C1478   1.484   .     S
C1475  C1488   1.496   .     S
C1476  C1477   1.484   .     S
C1477  C1480   1.496   .     S
C1477  C1482   1.388   .     S
C1478  C1479   1.476   .     S
C1479  C1482   1.484   .     S
C1480  C1481   1.484   .     S
C1481  C1484   1.476   .     S
C1481  C1486   1.390   .     S
C1482  C1483   1.496   .     S
C1483  C1486   1.484   .     S
C1484  C1485   1.484   .     S
C1485  C1488   1.388   .     S
C1486  C1487   1.476   .     S
C1487  C1488   1.484   .     S
C1489  C1490   1.484   .     S
C1489  C1501   1.496   .     S
C1490  C1492   1.476   .     S
C1490  C1494   1.390   .     S
C1491  C1494   1.484   .     S
C1491  C1504   1.496   .     S
C1492  C1493   1.484   .     S
C1493  C1496   1.496   .     S
C1493  C1498   1.388   .     S
C1494  C1495   1.476   .     S
C1495  C1498   1.484   .     S
C1496  C1497   1.484   .     S
C1497  C1500   1.476   .     S
C1497  C1502   1.390   .     S
C1498  C1499   1.496   .     S
C1499  C1502   1.484   .     S
C1500  C1501   1.484   .     S
C1501  C1504   1.388   .     S
C1502  C1503   1.476   .     S
C1503  C1504   1.484   .     S
C1505  C1506   1.484   .     S
C1505  C1517   1.496   .     S
C1506  C1508   1.476   .     S
C1506  C1510   1.390   .     S
C1507  C1510   1.484   .     S
C1507  C1520   1.496   .     S
C1508  C1509   1.484   .     S
C1509  C1512   1.496   .     S
C1509  C1514   1.388   .     S
C1510  C1511   1.476   .     S
C1511  C1514   1.484   .     S
C1512  C1513   1.484   .     S
C1513  C1516   1.476   .     S
C1513  C1518   1.390   .     S
C1514  C1515   1.496   .     S
C1515  C1518   1.484   .     S
C1516  C1517   1.484   .     S
C1517  C1520   1.388   .     S
C1518  C1519   1.476   .     S
C1519  C1520   1.484   .     S
C1521  C1533   1.496   .     S
C1522  C1524   1.476   .     S
C1522  C1526   1.390   .     S
C1523  C1536   1.496   .     S
C1524  C1525   1.484   .     S
C1525  C1528   1.496   .     S
C1525  C1530   1.388   .     S
C1526  C1527   1.476   .     S
C1527  C1530   1.484   .     S
C1529  C1532   1.476   .     S
C1529  C1534   1.390   .     S
C1530  C1531   1.496   .     S
C1532  C1533   1.484   .     S
C1533  C1536   1.388   .     S
C1534  C1535   1.476   .     S
C1535  C1536   1.484   .     S
