data_50
_audit_creation_date              2023-12-23
_audit_creation_method            'Materials Studio'
_symmetry_space_group_name_H-M    'P1'
_symmetry_Int_Tables_number       1
_symmetry_cell_setting            triclinic
loop_
_symmetry_equiv_pos_as_xyz
  x,y,z
_cell_length_a                    21.1177
_cell_length_b                    21.1073
_cell_length_c                    25.1992
_cell_angle_alpha                 90.0037
_cell_angle_beta                  90.0018
_cell_angle_gamma                 63.8795
loop_
_atom_site_label
_atom_site_type_symbol
_atom_site_fract_x
_atom_site_fract_y
_atom_site_fract_z
_atom_site_U_iso_or_equiv
_atom_site_adp_type
_atom_site_occupancy
C1     C     0.02457   0.24822   0.03376   0.00000  Uiso   1.00
C2     C     0.02457   0.24822   0.08932   0.00000  Uiso   1.00
C3     C     0.95729   0.27666   0.11728   0.00000  Uiso   1.00
C4     C     0.95729   0.27666   0.00580   0.00000  Uiso   1.00
C5     C     0.90398   0.26274   0.03384   0.00000  Uiso   1.00
C6     C     0.90398   0.26274   0.08924   0.00000  Uiso   1.00
C7     C     0.88997   0.20945   0.11728   0.00000  Uiso   1.00
C8     C     0.88997   0.20945   0.00580   0.00000  Uiso   1.00
C9     C     0.91841   0.14213   0.03376   0.00000  Uiso   1.00
C10    C     0.91841   0.14213   0.08932   0.00000  Uiso   1.00
C11    C     0.97543   0.08512   0.11709   0.00000  Uiso   1.00
C12    C     0.97543   0.08512   0.00599   0.00000  Uiso   1.00
C13    C     0.04271   0.05667   0.03395   0.00000  Uiso   1.00
C14    C     0.04271   0.05667   0.08913   0.00000  Uiso   1.00
C15    C     0.09602   0.07059   0.11717   0.00000  Uiso   1.00
C16    C     0.09602   0.07059   0.00590   0.00000  Uiso   1.00
C17    C     0.11003   0.12388   0.03395   0.00000  Uiso   1.00
C18    C     0.11003   0.12388   0.08913   0.00000  Uiso   1.00
C19    C     0.08159   0.19121   0.11709   0.00000  Uiso   1.00
C20    C     0.08159   0.19121   0.00599   0.00000  Uiso   1.00
C21    C     0.35790   0.24822   0.03376   0.00000  Uiso   1.00
C22    C     0.35790   0.24822   0.08932   0.00000  Uiso   1.00
C23    C     0.29062   0.27666   0.11728   0.00000  Uiso   1.00
C24    C     0.29062   0.27666   0.00580   0.00000  Uiso   1.00
C25    C     0.23731   0.26274   0.03384   0.00000  Uiso   1.00
C26    C     0.23731   0.26274   0.08924   0.00000  Uiso   1.00
C27    C     0.22330   0.20945   0.11728   0.00000  Uiso   1.00
C28    C     0.22330   0.20945   0.00580   0.00000  Uiso   1.00
C29    C     0.25175   0.14213   0.03376   0.00000  Uiso   1.00
C30    C     0.25175   0.14213   0.08932   0.00000  Uiso   1.00
C31    C     0.30877   0.08512   0.11709   0.00000  Uiso   1.00
C32    C     0.30877   0.08512   0.00599   0.00000  Uiso   1.00
C33    C     0.37604   0.05667   0.03395   0.00000  Uiso   1.00
C34    C     0.37604   0.05667   0.08913   0.00000  Uiso   1.00
C35    C     0.42935   0.07059   0.11717   0.00000  Uiso   1.00
C36    C     0.42935   0.07059   0.00590   0.00000  Uiso   1.00
C37    C     0.44336   0.12388   0.03395   0.00000  Uiso   1.00
C38    C     0.44336   0.12388   0.08913   0.00000  Uiso   1.00
C39    C     0.41492   0.19121   0.11709   0.00000  Uiso   1.00
C40    C     0.41492   0.19121   0.00599   0.00000  Uiso   1.00
C41    C     0.69123   0.24822   0.03376   0.00000  Uiso   1.00
C42    C     0.69123   0.24822   0.08932   0.00000  Uiso   1.00
C43    C     0.62395   0.27666   0.11728   0.00000  Uiso   1.00
C44    C     0.62395   0.27666   0.00580   0.00000  Uiso   1.00
C45    C     0.57064   0.26274   0.03384   0.00000  Uiso   1.00
C46    C     0.57064   0.26274   0.08924   0.00000  Uiso   1.00
C47    C     0.55664   0.20945   0.11728   0.00000  Uiso   1.00
C48    C     0.55664   0.20945   0.00580   0.00000  Uiso   1.00
C49    C     0.58508   0.14213   0.03376   0.00000  Uiso   1.00
C50    C     0.58508   0.14213   0.08932   0.00000  Uiso   1.00
C51    C     0.64210   0.08512   0.11709   0.00000  Uiso   1.00
C52    C     0.64210   0.08512   0.00599   0.00000  Uiso   1.00
C53    C     0.70938   0.05667   0.03395   0.00000  Uiso   1.00
C54    C     0.70938   0.05667   0.08913   0.00000  Uiso   1.00
C55    C     0.76269   0.07059   0.11717   0.00000  Uiso   1.00
C56    C     0.76269   0.07059   0.00590   0.00000  Uiso   1.00
C57    C     0.77669   0.12388   0.03395   0.00000  Uiso   1.00
C58    C     0.77669   0.12388   0.08913   0.00000  Uiso   1.00
C59    C     0.74825   0.19121   0.11709   0.00000  Uiso   1.00
C60    C     0.74825   0.19121   0.00599   0.00000  Uiso   1.00
C61    C     0.69123   0.58155   0.03376   0.00000  Uiso   1.00
C62    C     0.69123   0.58155   0.08932   0.00000  Uiso   1.00
C63    C     0.62395   0.61000   0.11728   0.00000  Uiso   1.00
C64    C     0.62395   0.61000   0.00580   0.00000  Uiso   1.00
C65    C     0.57064   0.59607   0.03384   0.00000  Uiso   1.00
C66    C     0.57064   0.59607   0.08924   0.00000  Uiso   1.00
C67    C     0.55664   0.54278   0.11728   0.00000  Uiso   1.00
C68    C     0.55664   0.54278   0.00580   0.00000  Uiso   1.00
C69    C     0.58508   0.47546   0.03376   0.00000  Uiso   1.00
C70    C     0.58508   0.47546   0.08932   0.00000  Uiso   1.00
C71    C     0.64210   0.41845   0.11709   0.00000  Uiso   1.00
C72    C     0.64210   0.41845   0.00599   0.00000  Uiso   1.00
C73    C     0.70938   0.39000   0.03395   0.00000  Uiso   1.00
C74    C     0.70938   0.39000   0.08913   0.00000  Uiso   1.00
C75    C     0.76269   0.40393   0.11717   0.00000  Uiso   1.00
C76    C     0.76269   0.40393   0.00590   0.00000  Uiso   1.00
C77    C     0.77669   0.45722   0.03395   0.00000  Uiso   1.00
C78    C     0.77669   0.45722   0.08913   0.00000  Uiso   1.00
C79    C     0.74825   0.52454   0.11709   0.00000  Uiso   1.00
C80    C     0.74825   0.52454   0.00599   0.00000  Uiso   1.00
C81    C     0.02457   0.58155   0.03376   0.00000  Uiso   1.00
C82    C     0.02457   0.58155   0.08932   0.00000  Uiso   1.00
C83    C     0.95729   0.61000   0.11728   0.00000  Uiso   1.00
C84    C     0.95729   0.61000   0.00580   0.00000  Uiso   1.00
C85    C     0.90398   0.59607   0.03384   0.00000  Uiso   1.00
C86    C     0.90398   0.59607   0.08924   0.00000  Uiso   1.00
C87    C     0.88997   0.54278   0.11728   0.00000  Uiso   1.00
C88    C     0.88997   0.54278   0.00580   0.00000  Uiso   1.00
C89    C     0.91841   0.47546   0.03376   0.00000  Uiso   1.00
C90    C     0.91841   0.47546   0.08932   0.00000  Uiso   1.00
C91    C     0.97543   0.41845   0.11709   0.00000  Uiso   1.00
C92    C     0.97543   0.41845   0.00599   0.00000  Uiso   1.00
C93    C     0.04271   0.39000   0.03395   0.00000  Uiso   1.00
C94    C     0.04271   0.39000   0.08913   0.00000  Uiso   1.00
C95    C     0.09602   0.40393   0.11717   0.00000  Uiso   1.00
C96    C     0.09602   0.40393   0.00590   0.00000  Uiso   1.00
C97    C     0.11003   0.45722   0.03395   0.00000  Uiso   1.00
C98    C     0.11003   0.45722   0.08913   0.00000  Uiso   1.00
C99    C     0.08158   0.52454   0.11709   0.00000  Uiso   1.00
C100   C     0.08158   0.52454   0.00599   0.00000  Uiso   1.00
C101   C     0.35790   0.58155   0.03376   0.00000  Uiso   1.00
C102   C     0.35790   0.58155   0.08932   0.00000  Uiso   1.00
C103   C     0.29062   0.61000   0.11728   0.00000  Uiso   1.00
C104   C     0.29062   0.61000   0.00580   0.00000  Uiso   1.00
C105   C     0.23731   0.59607   0.03384   0.00000  Uiso   1.00
C106   C     0.23731   0.59607   0.08924   0.00000  Uiso   1.00
C107   C     0.22330   0.54278   0.11728   0.00000  Uiso   1.00
C108   C     0.22330   0.54278   0.00580   0.00000  Uiso   1.00
C109   C     0.25175   0.47546   0.03376   0.00000  Uiso   1.00
C110   C     0.25175   0.47546   0.08932   0.00000  Uiso   1.00
C111   C     0.30876   0.41845   0.11709   0.00000  Uiso   1.00
C112   C     0.30876   0.41845   0.00599   0.00000  Uiso   1.00
C113   C     0.37604   0.39000   0.03395   0.00000  Uiso   1.00
C114   C     0.37604   0.39000   0.08913   0.00000  Uiso   1.00
C115   C     0.42935   0.40393   0.11717   0.00000  Uiso   1.00
C116   C     0.42935   0.40393   0.00590   0.00000  Uiso   1.00
C117   C     0.44336   0.45722   0.03395   0.00000  Uiso   1.00
C118   C     0.44336   0.45722   0.08913   0.00000  Uiso   1.00
C119   C     0.41492   0.52454   0.11709   0.00000  Uiso   1.00
C120   C     0.41492   0.52454   0.00599   0.00000  Uiso   1.00
C121   C     0.35790   0.91488   0.03376   0.00000  Uiso   1.00
C122   C     0.35790   0.91488   0.08932   0.00000  Uiso   1.00
C123   C     0.29062   0.94333   0.11728   0.00000  Uiso   1.00
C124   C     0.29062   0.94333   0.00580   0.00000  Uiso   1.00
C125   C     0.23731   0.92941   0.03384   0.00000  Uiso   1.00
C126   C     0.23731   0.92941   0.08924   0.00000  Uiso   1.00
C127   C     0.22330   0.87612   0.11728   0.00000  Uiso   1.00
C128   C     0.22330   0.87612   0.00580   0.00000  Uiso   1.00
C129   C     0.25175   0.80879   0.03376   0.00000  Uiso   1.00
C130   C     0.25175   0.80879   0.08932   0.00000  Uiso   1.00
C131   C     0.30877   0.75178   0.11709   0.00000  Uiso   1.00
C132   C     0.30876   0.75178   0.00599   0.00000  Uiso   1.00
C133   C     0.37604   0.72334   0.03395   0.00000  Uiso   1.00
C134   C     0.37604   0.72334   0.08913   0.00000  Uiso   1.00
C135   C     0.42935   0.73726   0.11717   0.00000  Uiso   1.00
C136   C     0.42935   0.73726   0.00590   0.00000  Uiso   1.00
C137   C     0.44336   0.79055   0.03395   0.00000  Uiso   1.00
C138   C     0.44336   0.79055   0.08913   0.00000  Uiso   1.00
C139   C     0.41492   0.85787   0.11709   0.00000  Uiso   1.00
C140   C     0.41492   0.85787   0.00599   0.00000  Uiso   1.00
C141   C     0.69123   0.91488   0.03376   0.00000  Uiso   1.00
C142   C     0.69123   0.91488   0.08932   0.00000  Uiso   1.00
C143   C     0.62395   0.94333   0.11728   0.00000  Uiso   1.00
C144   C     0.62395   0.94333   0.00580   0.00000  Uiso   1.00
C145   C     0.57064   0.92941   0.03384   0.00000  Uiso   1.00
C146   C     0.57064   0.92941   0.08924   0.00000  Uiso   1.00
C147   C     0.55664   0.87612   0.11728   0.00000  Uiso   1.00
C148   C     0.55664   0.87612   0.00580   0.00000  Uiso   1.00
C149   C     0.58508   0.80879   0.03376   0.00000  Uiso   1.00
C150   C     0.58508   0.80880   0.08932   0.00000  Uiso   1.00
C151   C     0.64210   0.75178   0.11709   0.00000  Uiso   1.00
C152   C     0.64210   0.75178   0.00599   0.00000  Uiso   1.00
C153   C     0.70938   0.72334   0.03395   0.00000  Uiso   1.00
C154   C     0.70938   0.72334   0.08913   0.00000  Uiso   1.00
C155   C     0.76269   0.73726   0.11717   0.00000  Uiso   1.00
C156   C     0.76269   0.73726   0.00590   0.00000  Uiso   1.00
C157   C     0.77669   0.79055   0.03395   0.00000  Uiso   1.00
C158   C     0.77669   0.79055   0.08913   0.00000  Uiso   1.00
C159   C     0.74825   0.85787   0.11709   0.00000  Uiso   1.00
C160   C     0.74825   0.85787   0.00599   0.00000  Uiso   1.00
C161   C     0.02456   0.91488   0.03376   0.00000  Uiso   1.00
C162   C     0.02456   0.91488   0.08932   0.00000  Uiso   1.00
C163   C     0.95729   0.94333   0.11728   0.00000  Uiso   1.00
C164   C     0.95729   0.94333   0.00580   0.00000  Uiso   1.00
C165   C     0.90398   0.92941   0.03384   0.00000  Uiso   1.00
C166   C     0.90398   0.92941   0.08924   0.00000  Uiso   1.00
C167   C     0.88997   0.87612   0.11728   0.00000  Uiso   1.00
C168   C     0.88997   0.87612   0.00580   0.00000  Uiso   1.00
C169   C     0.91841   0.80879   0.03376   0.00000  Uiso   1.00
C170   C     0.91841   0.80880   0.08932   0.00000  Uiso   1.00
C171   C     0.97543   0.75178   0.11709   0.00000  Uiso   1.00
C172   C     0.97543   0.75178   0.00599   0.00000  Uiso   1.00
C173   C     0.04271   0.72334   0.03395   0.00000  Uiso   1.00
C174   C     0.04271   0.72334   0.08913   0.00000  Uiso   1.00
C175   C     0.09602   0.73726   0.11717   0.00000  Uiso   1.00
C176   C     0.09602   0.73726   0.00590   0.00000  Uiso   1.00
C177   C     0.11003   0.79055   0.03395   0.00000  Uiso   1.00
C178   C     0.11003   0.79055   0.08913   0.00000  Uiso   1.00
C179   C     0.08158   0.85787   0.11709   0.00000  Uiso   1.00
C180   C     0.08158   0.85787   0.00599   0.00000  Uiso   1.00
C181   C     0.02457   0.24822   0.20042   0.00000  Uiso   1.00
C182   C     0.02457   0.24822   0.25599   0.00000  Uiso   1.00
C183   C     0.95729   0.27666   0.28395   0.00000  Uiso   1.00
C184   C     0.95729   0.27666   0.17246   0.00000  Uiso   1.00
C185   C     0.90398   0.26274   0.20051   0.00000  Uiso   1.00
C186   C     0.90398   0.26274   0.25590   0.00000  Uiso   1.00
C187   C     0.88997   0.20945   0.28395   0.00000  Uiso   1.00
C188   C     0.88997   0.20945   0.17246   0.00000  Uiso   1.00
C189   C     0.91841   0.14213   0.20042   0.00000  Uiso   1.00
C190   C     0.91841   0.14213   0.25599   0.00000  Uiso   1.00
C191   C     0.97543   0.08512   0.28376   0.00000  Uiso   1.00
C192   C     0.97543   0.08512   0.17265   0.00000  Uiso   1.00
C193   C     0.04271   0.05667   0.20061   0.00000  Uiso   1.00
C194   C     0.04271   0.05667   0.25580   0.00000  Uiso   1.00
C195   C     0.09602   0.07059   0.28384   0.00000  Uiso   1.00
C196   C     0.09602   0.07059   0.17257   0.00000  Uiso   1.00
C197   C     0.11003   0.12388   0.20062   0.00000  Uiso   1.00
C198   C     0.11003   0.12388   0.25580   0.00000  Uiso   1.00
C199   C     0.08159   0.19121   0.28376   0.00000  Uiso   1.00
C200   C     0.08159   0.19121   0.17265   0.00000  Uiso   1.00
C201   C     0.35790   0.24822   0.20042   0.00000  Uiso   1.00
C202   C     0.35790   0.24822   0.25599   0.00000  Uiso   1.00
C203   C     0.29062   0.27666   0.28395   0.00000  Uiso   1.00
C204   C     0.29062   0.27666   0.17246   0.00000  Uiso   1.00
C205   C     0.23731   0.26274   0.20051   0.00000  Uiso   1.00
C206   C     0.23731   0.26274   0.25590   0.00000  Uiso   1.00
C207   C     0.22330   0.20945   0.28395   0.00000  Uiso   1.00
C208   C     0.22330   0.20945   0.17246   0.00000  Uiso   1.00
C209   C     0.25175   0.14213   0.20042   0.00000  Uiso   1.00
C210   C     0.25175   0.14213   0.25599   0.00000  Uiso   1.00
C211   C     0.30877   0.08512   0.28376   0.00000  Uiso   1.00
C212   C     0.30877   0.08512   0.17265   0.00000  Uiso   1.00
C213   C     0.37604   0.05667   0.20061   0.00000  Uiso   1.00
C214   C     0.37604   0.05667   0.25580   0.00000  Uiso   1.00
C215   C     0.42935   0.07059   0.28384   0.00000  Uiso   1.00
C216   C     0.42935   0.07059   0.17257   0.00000  Uiso   1.00
C217   C     0.44336   0.12388   0.20061   0.00000  Uiso   1.00
C218   C     0.44336   0.12388   0.25580   0.00000  Uiso   1.00
C219   C     0.41492   0.19121   0.28376   0.00000  Uiso   1.00
C220   C     0.41492   0.19121   0.17265   0.00000  Uiso   1.00
C221   C     0.69123   0.24822   0.20042   0.00000  Uiso   1.00
C222   C     0.69123   0.24822   0.25599   0.00000  Uiso   1.00
C223   C     0.62395   0.27666   0.28395   0.00000  Uiso   1.00
C224   C     0.62395   0.27666   0.17246   0.00000  Uiso   1.00
C225   C     0.57064   0.26274   0.20051   0.00000  Uiso   1.00
C226   C     0.57064   0.26274   0.25590   0.00000  Uiso   1.00
C227   C     0.55664   0.20945   0.28395   0.00000  Uiso   1.00
C228   C     0.55664   0.20945   0.17246   0.00000  Uiso   1.00
C229   C     0.58508   0.14213   0.20042   0.00000  Uiso   1.00
C230   C     0.58508   0.14213   0.25599   0.00000  Uiso   1.00
C231   C     0.64210   0.08512   0.28376   0.00000  Uiso   1.00
C232   C     0.64210   0.08512   0.17265   0.00000  Uiso   1.00
C233   C     0.70938   0.05667   0.20061   0.00000  Uiso   1.00
C234   C     0.70938   0.05667   0.25580   0.00000  Uiso   1.00
C235   C     0.76269   0.07059   0.28384   0.00000  Uiso   1.00
C236   C     0.76269   0.07059   0.17257   0.00000  Uiso   1.00
C237   C     0.77669   0.12388   0.20062   0.00000  Uiso   1.00
C238   C     0.77669   0.12388   0.25580   0.00000  Uiso   1.00
C239   C     0.74825   0.19121   0.28376   0.00000  Uiso   1.00
C240   C     0.74825   0.19121   0.17265   0.00000  Uiso   1.00
C241   C     0.69123   0.58155   0.20042   0.00000  Uiso   1.00
C242   C     0.69123   0.58155   0.25599   0.00000  Uiso   1.00
C243   C     0.62395   0.61000   0.28395   0.00000  Uiso   1.00
C244   C     0.62395   0.61000   0.17246   0.00000  Uiso   1.00
C245   C     0.57064   0.59607   0.20051   0.00000  Uiso   1.00
C246   C     0.57064   0.59607   0.25590   0.00000  Uiso   1.00
C247   C     0.55664   0.54278   0.28395   0.00000  Uiso   1.00
C248   C     0.55664   0.54278   0.17246   0.00000  Uiso   1.00
C249   C     0.58508   0.47546   0.20042   0.00000  Uiso   1.00
C250   C     0.58508   0.47546   0.25599   0.00000  Uiso   1.00
C251   C     0.64210   0.41845   0.28376   0.00000  Uiso   1.00
C252   C     0.64210   0.41845   0.17265   0.00000  Uiso   1.00
C253   C     0.70938   0.39000   0.20061   0.00000  Uiso   1.00
C254   C     0.70938   0.39000   0.25580   0.00000  Uiso   1.00
C255   C     0.76269   0.40393   0.28384   0.00000  Uiso   1.00
C256   C     0.76269   0.40393   0.17257   0.00000  Uiso   1.00
C257   C     0.77669   0.45722   0.20062   0.00000  Uiso   1.00
C258   C     0.77669   0.45722   0.25580   0.00000  Uiso   1.00
C259   C     0.74825   0.52454   0.28376   0.00000  Uiso   1.00
C260   C     0.74825   0.52454   0.17265   0.00000  Uiso   1.00
C261   C     0.02457   0.58155   0.20042   0.00000  Uiso   1.00
C262   C     0.02457   0.58155   0.25599   0.00000  Uiso   1.00
C263   C     0.95729   0.61000   0.28395   0.00000  Uiso   1.00
C264   C     0.95729   0.61000   0.17246   0.00000  Uiso   1.00
C265   C     0.90398   0.59607   0.20051   0.00000  Uiso   1.00
C266   C     0.90398   0.59607   0.25590   0.00000  Uiso   1.00
C267   C     0.88997   0.54278   0.28395   0.00000  Uiso   1.00
C268   C     0.88997   0.54278   0.17246   0.00000  Uiso   1.00
C269   C     0.91841   0.47546   0.20042   0.00000  Uiso   1.00
C270   C     0.91841   0.47546   0.25599   0.00000  Uiso   1.00
C271   C     0.97543   0.41845   0.28376   0.00000  Uiso   1.00
C272   C     0.97543   0.41845   0.17265   0.00000  Uiso   1.00
C273   C     0.04271   0.39000   0.20061   0.00000  Uiso   1.00
C274   C     0.04271   0.39000   0.25580   0.00000  Uiso   1.00
C275   C     0.09602   0.40393   0.28384   0.00000  Uiso   1.00
C276   C     0.09602   0.40393   0.17257   0.00000  Uiso   1.00
C277   C     0.11003   0.45722   0.20062   0.00000  Uiso   1.00
C278   C     0.11003   0.45722   0.25580   0.00000  Uiso   1.00
C279   C     0.08158   0.52454   0.28376   0.00000  Uiso   1.00
C280   C     0.08158   0.52454   0.17265   0.00000  Uiso   1.00
C281   C     0.35790   0.58155   0.20042   0.00000  Uiso   1.00
C282   C     0.35790   0.58155   0.25599   0.00000  Uiso   1.00
C283   C     0.29062   0.61000   0.28395   0.00000  Uiso   1.00
C284   C     0.29062   0.61000   0.17246   0.00000  Uiso   1.00
C285   C     0.23731   0.59607   0.20051   0.00000  Uiso   1.00
C286   C     0.23731   0.59607   0.25590   0.00000  Uiso   1.00
C287   C     0.22330   0.54278   0.28395   0.00000  Uiso   1.00
C288   C     0.22330   0.54278   0.17246   0.00000  Uiso   1.00
C289   C     0.25175   0.47546   0.20042   0.00000  Uiso   1.00
C290   C     0.25175   0.47546   0.25599   0.00000  Uiso   1.00
C291   C     0.30876   0.41845   0.28376   0.00000  Uiso   1.00
C292   C     0.30876   0.41845   0.17265   0.00000  Uiso   1.00
C293   C     0.37604   0.39000   0.20061   0.00000  Uiso   1.00
C294   C     0.37604   0.39000   0.25580   0.00000  Uiso   1.00
C295   C     0.42935   0.40393   0.28384   0.00000  Uiso   1.00
C296   C     0.42935   0.40393   0.17257   0.00000  Uiso   1.00
C297   C     0.44336   0.45722   0.20061   0.00000  Uiso   1.00
C298   C     0.44336   0.45722   0.25580   0.00000  Uiso   1.00
C299   C     0.41492   0.52454   0.28376   0.00000  Uiso   1.00
C300   C     0.41492   0.52454   0.17265   0.00000  Uiso   1.00
C301   C     0.35790   0.91488   0.20042   0.00000  Uiso   1.00
C302   C     0.35790   0.91488   0.25599   0.00000  Uiso   1.00
C303   C     0.29062   0.94333   0.28395   0.00000  Uiso   1.00
C304   C     0.29062   0.94333   0.17246   0.00000  Uiso   1.00
C305   C     0.23731   0.92941   0.20051   0.00000  Uiso   1.00
C306   C     0.23731   0.92941   0.25590   0.00000  Uiso   1.00
C307   C     0.22330   0.87612   0.28395   0.00000  Uiso   1.00
C308   C     0.22330   0.87612   0.17246   0.00000  Uiso   1.00
C309   C     0.25175   0.80880   0.20042   0.00000  Uiso   1.00
C310   C     0.25175   0.80879   0.25599   0.00000  Uiso   1.00
C311   C     0.30876   0.75178   0.28376   0.00000  Uiso   1.00
C312   C     0.30876   0.75178   0.17265   0.00000  Uiso   1.00
C313   C     0.37604   0.72334   0.20061   0.00000  Uiso   1.00
C314   C     0.37604   0.72334   0.25580   0.00000  Uiso   1.00
C315   C     0.42935   0.73726   0.28384   0.00000  Uiso   1.00
C316   C     0.42935   0.73726   0.17257   0.00000  Uiso   1.00
C317   C     0.44336   0.79055   0.20062   0.00000  Uiso   1.00
C318   C     0.44336   0.79055   0.25580   0.00000  Uiso   1.00
C319   C     0.41492   0.85787   0.28376   0.00000  Uiso   1.00
C320   C     0.41492   0.85787   0.17265   0.00000  Uiso   1.00
C321   C     0.69123   0.91488   0.20042   0.00000  Uiso   1.00
C322   C     0.69123   0.91488   0.25599   0.00000  Uiso   1.00
C323   C     0.62395   0.94333   0.28395   0.00000  Uiso   1.00
C324   C     0.62395   0.94333   0.17246   0.00000  Uiso   1.00
C325   C     0.57064   0.92941   0.20051   0.00000  Uiso   1.00
C326   C     0.57064   0.92941   0.25590   0.00000  Uiso   1.00
C327   C     0.55664   0.87612   0.28395   0.00000  Uiso   1.00
C328   C     0.55664   0.87612   0.17246   0.00000  Uiso   1.00
C329   C     0.58508   0.80879   0.20042   0.00000  Uiso   1.00
C330   C     0.58508   0.80879   0.25599   0.00000  Uiso   1.00
C331   C     0.64210   0.75178   0.28376   0.00000  Uiso   1.00
C332   C     0.64210   0.75178   0.17265   0.00000  Uiso   1.00
C333   C     0.70938   0.72334   0.20061   0.00000  Uiso   1.00
C334   C     0.70938   0.72334   0.25580   0.00000  Uiso   1.00
C335   C     0.76269   0.73726   0.28384   0.00000  Uiso   1.00
C336   C     0.76269   0.73726   0.17257   0.00000  Uiso   1.00
C337   C     0.77669   0.79055   0.20062   0.00000  Uiso   1.00
C338   C     0.77669   0.79055   0.25580   0.00000  Uiso   1.00
C339   C     0.74825   0.85787   0.28376   0.00000  Uiso   1.00
C340   C     0.74825   0.85787   0.17265   0.00000  Uiso   1.00
C341   C     0.02456   0.91488   0.20042   0.00000  Uiso   1.00
C342   C     0.02456   0.91488   0.25599   0.00000  Uiso   1.00
C343   C     0.95729   0.94333   0.28395   0.00000  Uiso   1.00
C344   C     0.95729   0.94333   0.17246   0.00000  Uiso   1.00
C345   C     0.90398   0.92941   0.20051   0.00000  Uiso   1.00
C346   C     0.90398   0.92941   0.25590   0.00000  Uiso   1.00
C347   C     0.88997   0.87612   0.28395   0.00000  Uiso   1.00
C348   C     0.88997   0.87612   0.17246   0.00000  Uiso   1.00
C349   C     0.91841   0.80879   0.20042   0.00000  Uiso   1.00
C350   C     0.91841   0.80880   0.25599   0.00000  Uiso   1.00
C351   C     0.97543   0.75178   0.28376   0.00000  Uiso   1.00
C352   C     0.97543   0.75178   0.17265   0.00000  Uiso   1.00
C353   C     0.04271   0.72334   0.20061   0.00000  Uiso   1.00
C354   C     0.04271   0.72334   0.25580   0.00000  Uiso   1.00
C355   C     0.09602   0.73726   0.28384   0.00000  Uiso   1.00
C356   C     0.09602   0.73726   0.17257   0.00000  Uiso   1.00
C357   C     0.11003   0.79055   0.20062   0.00000  Uiso   1.00
C358   C     0.11003   0.79055   0.25580   0.00000  Uiso   1.00
C359   C     0.08158   0.85787   0.28376   0.00000  Uiso   1.00
C360   C     0.08158   0.85787   0.17265   0.00000  Uiso   1.00
C361   C     0.02457   0.24822   0.36709   0.00000  Uiso   1.00
C362   C     0.02457   0.24822   0.42265   0.00000  Uiso   1.00
C363   C     0.95729   0.27666   0.45061   0.00000  Uiso   1.00
C364   C     0.95729   0.27666   0.33913   0.00000  Uiso   1.00
C365   C     0.90398   0.26274   0.36717   0.00000  Uiso   1.00
C366   C     0.90398   0.26274   0.42257   0.00000  Uiso   1.00
C367   C     0.88997   0.20945   0.45062   0.00000  Uiso   1.00
C368   C     0.88997   0.20945   0.33913   0.00000  Uiso   1.00
C369   C     0.91841   0.14213   0.36709   0.00000  Uiso   1.00
C370   C     0.91841   0.14213   0.42265   0.00000  Uiso   1.00
C371   C     0.97543   0.08512   0.45042   0.00000  Uiso   1.00
C372   C     0.97543   0.08512   0.33932   0.00000  Uiso   1.00
C373   C     0.04271   0.05667   0.36728   0.00000  Uiso   1.00
C374   C     0.04271   0.05667   0.42246   0.00000  Uiso   1.00
C375   C     0.09602   0.07059   0.45051   0.00000  Uiso   1.00
C376   C     0.09602   0.07059   0.33924   0.00000  Uiso   1.00
C377   C     0.11003   0.12388   0.36728   0.00000  Uiso   1.00
C378   C     0.11003   0.12388   0.42246   0.00000  Uiso   1.00
C379   C     0.08159   0.19121   0.45042   0.00000  Uiso   1.00
C380   C     0.08159   0.19121   0.33932   0.00000  Uiso   1.00
C381   C     0.35790   0.24822   0.36709   0.00000  Uiso   1.00
C382   C     0.35790   0.24822   0.42265   0.00000  Uiso   1.00
C383   C     0.29062   0.27666   0.45061   0.00000  Uiso   1.00
C384   C     0.29062   0.27666   0.33913   0.00000  Uiso   1.00
C385   C     0.23731   0.26274   0.36717   0.00000  Uiso   1.00
C386   C     0.23731   0.26274   0.42257   0.00000  Uiso   1.00
C387   C     0.22330   0.20945   0.45062   0.00000  Uiso   1.00
C388   C     0.22330   0.20945   0.33913   0.00000  Uiso   1.00
C389   C     0.25175   0.14213   0.36709   0.00000  Uiso   1.00
C390   C     0.25175   0.14213   0.42265   0.00000  Uiso   1.00
C391   C     0.30877   0.08512   0.45042   0.00000  Uiso   1.00
C392   C     0.30877   0.08512   0.33932   0.00000  Uiso   1.00
C393   C     0.37604   0.05667   0.36728   0.00000  Uiso   1.00
C394   C     0.37604   0.05667   0.42246   0.00000  Uiso   1.00
C395   C     0.42935   0.07059   0.45051   0.00000  Uiso   1.00
C396   C     0.42935   0.07059   0.33924   0.00000  Uiso   1.00
C397   C     0.44336   0.12388   0.36728   0.00000  Uiso   1.00
C398   C     0.44336   0.12388   0.42246   0.00000  Uiso   1.00
C399   C     0.41492   0.19121   0.45042   0.00000  Uiso   1.00
C400   C     0.41492   0.19121   0.33932   0.00000  Uiso   1.00
C401   C     0.69123   0.24822   0.36709   0.00000  Uiso   1.00
C402   C     0.69123   0.24822   0.42265   0.00000  Uiso   1.00
C403   C     0.62395   0.27666   0.45061   0.00000  Uiso   1.00
C404   C     0.62395   0.27666   0.33913   0.00000  Uiso   1.00
C405   C     0.57064   0.26274   0.36717   0.00000  Uiso   1.00
C406   C     0.57064   0.26274   0.42257   0.00000  Uiso   1.00
C407   C     0.55664   0.20945   0.45061   0.00000  Uiso   1.00
C408   C     0.55664   0.20945   0.33913   0.00000  Uiso   1.00
C409   C     0.58508   0.14213   0.36709   0.00000  Uiso   1.00
C410   C     0.58508   0.14213   0.42265   0.00000  Uiso   1.00
C411   C     0.64210   0.08512   0.45042   0.00000  Uiso   1.00
C412   C     0.64210   0.08512   0.33932   0.00000  Uiso   1.00
C413   C     0.70938   0.05667   0.36728   0.00000  Uiso   1.00
C414   C     0.70938   0.05667   0.42246   0.00000  Uiso   1.00
C415   C     0.76269   0.07059   0.45051   0.00000  Uiso   1.00
C416   C     0.76269   0.07059   0.33924   0.00000  Uiso   1.00
C417   C     0.77669   0.12388   0.36728   0.00000  Uiso   1.00
C418   C     0.77669   0.12388   0.42246   0.00000  Uiso   1.00
C419   C     0.74825   0.19121   0.45042   0.00000  Uiso   1.00
C420   C     0.74825   0.19121   0.33932   0.00000  Uiso   1.00
C421   C     0.69123   0.58155   0.36709   0.00000  Uiso   1.00
C422   C     0.69123   0.58155   0.42265   0.00000  Uiso   1.00
C423   C     0.62395   0.61000   0.45061   0.00000  Uiso   1.00
C424   C     0.62395   0.61000   0.33913   0.00000  Uiso   1.00
C425   C     0.57064   0.59607   0.36717   0.00000  Uiso   1.00
C426   C     0.57064   0.59607   0.42257   0.00000  Uiso   1.00
C427   C     0.55664   0.54278   0.45062   0.00000  Uiso   1.00
C428   C     0.55664   0.54278   0.33913   0.00000  Uiso   1.00
C429   C     0.58508   0.47546   0.36709   0.00000  Uiso   1.00
C430   C     0.58508   0.47546   0.42265   0.00000  Uiso   1.00
C431   C     0.64210   0.41845   0.45042   0.00000  Uiso   1.00
C432   C     0.64210   0.41845   0.33932   0.00000  Uiso   1.00
C433   C     0.70938   0.39000   0.36728   0.00000  Uiso   1.00
C434   C     0.70938   0.39000   0.42246   0.00000  Uiso   1.00
C435   C     0.76269   0.40393   0.45051   0.00000  Uiso   1.00
C436   C     0.76269   0.40393   0.33924   0.00000  Uiso   1.00
C437   C     0.77669   0.45722   0.36728   0.00000  Uiso   1.00
C438   C     0.77669   0.45722   0.42246   0.00000  Uiso   1.00
C439   C     0.74825   0.52454   0.45042   0.00000  Uiso   1.00
C440   C     0.74825   0.52454   0.33932   0.00000  Uiso   1.00
C441   C     0.02457   0.58155   0.36709   0.00000  Uiso   1.00
C442   C     0.02456   0.58155   0.42265   0.00000  Uiso   1.00
C443   C     0.95729   0.61000   0.45061   0.00000  Uiso   1.00
C444   C     0.95729   0.61000   0.33913   0.00000  Uiso   1.00
C445   C     0.90398   0.59607   0.36717   0.00000  Uiso   1.00
C446   C     0.90398   0.59607   0.42257   0.00000  Uiso   1.00
C447   C     0.88997   0.54278   0.45061   0.00000  Uiso   1.00
C448   C     0.88997   0.54278   0.33913   0.00000  Uiso   1.00
C449   C     0.91841   0.47546   0.36709   0.00000  Uiso   1.00
C450   C     0.91841   0.47546   0.42265   0.00000  Uiso   1.00
C451   C     0.97543   0.41845   0.45042   0.00000  Uiso   1.00
C452   C     0.97543   0.41845   0.33932   0.00000  Uiso   1.00
C453   C     0.04271   0.39000   0.36728   0.00000  Uiso   1.00
C454   C     0.04271   0.39000   0.42246   0.00000  Uiso   1.00
C455   C     0.09602   0.40393   0.45051   0.00000  Uiso   1.00
C456   C     0.09602   0.40393   0.33924   0.00000  Uiso   1.00
C457   C     0.11003   0.45722   0.36728   0.00000  Uiso   1.00
C458   C     0.11003   0.45722   0.42246   0.00000  Uiso   1.00
C459   C     0.08158   0.52454   0.45042   0.00000  Uiso   1.00
C460   C     0.08158   0.52454   0.33932   0.00000  Uiso   1.00
C461   C     0.35790   0.58155   0.36709   0.00000  Uiso   1.00
C462   C     0.35790   0.58155   0.42265   0.00000  Uiso   1.00
C463   C     0.29062   0.61000   0.45061   0.00000  Uiso   1.00
C464   C     0.29062   0.61000   0.33913   0.00000  Uiso   1.00
C465   C     0.23731   0.59607   0.36717   0.00000  Uiso   1.00
C466   C     0.23731   0.59607   0.42257   0.00000  Uiso   1.00
C467   C     0.22330   0.54278   0.45062   0.00000  Uiso   1.00
C468   C     0.22330   0.54278   0.33913   0.00000  Uiso   1.00
C469   C     0.25175   0.47546   0.36709   0.00000  Uiso   1.00
C470   C     0.25175   0.47546   0.42265   0.00000  Uiso   1.00
C471   C     0.30877   0.41845   0.45042   0.00000  Uiso   1.00
C472   C     0.30876   0.41845   0.33932   0.00000  Uiso   1.00
C473   C     0.37604   0.39001   0.36728   0.00000  Uiso   1.00
C474   C     0.37604   0.39001   0.42246   0.00000  Uiso   1.00
C475   C     0.42935   0.40393   0.45051   0.00000  Uiso   1.00
C476   C     0.42935   0.40393   0.33924   0.00000  Uiso   1.00
C477   C     0.44336   0.45722   0.36728   0.00000  Uiso   1.00
C478   C     0.44336   0.45722   0.42246   0.00000  Uiso   1.00
C479   C     0.41492   0.52454   0.45042   0.00000  Uiso   1.00
C480   C     0.41492   0.52454   0.33932   0.00000  Uiso   1.00
C481   C     0.35790   0.91488   0.36709   0.00000  Uiso   1.00
C482   C     0.35790   0.91488   0.42265   0.00000  Uiso   1.00
C483   C     0.29062   0.94333   0.45061   0.00000  Uiso   1.00
C484   C     0.29062   0.94333   0.33913   0.00000  Uiso   1.00
C485   C     0.23731   0.92941   0.36717   0.00000  Uiso   1.00
C486   C     0.23731   0.92941   0.42257   0.00000  Uiso   1.00
C487   C     0.22330   0.87612   0.45062   0.00000  Uiso   1.00
C488   C     0.22330   0.87612   0.33913   0.00000  Uiso   1.00
C489   C     0.25175   0.80879   0.36709   0.00000  Uiso   1.00
C490   C     0.25175   0.80879   0.42265   0.00000  Uiso   1.00
C491   C     0.30876   0.75178   0.45042   0.00000  Uiso   1.00
C492   C     0.30876   0.75178   0.33932   0.00000  Uiso   1.00
C493   C     0.37604   0.72334   0.36728   0.00000  Uiso   1.00
C494   C     0.37604   0.72334   0.42246   0.00000  Uiso   1.00
C495   C     0.42935   0.73726   0.45051   0.00000  Uiso   1.00
C496   C     0.42935   0.73726   0.33924   0.00000  Uiso   1.00
C497   C     0.44336   0.79055   0.36728   0.00000  Uiso   1.00
C498   C     0.44336   0.79055   0.42246   0.00000  Uiso   1.00
C499   C     0.41492   0.85787   0.45042   0.00000  Uiso   1.00
C500   C     0.41492   0.85787   0.33932   0.00000  Uiso   1.00
C501   C     0.69123   0.91488   0.36709   0.00000  Uiso   1.00
C502   C     0.69123   0.91488   0.42265   0.00000  Uiso   1.00
C503   C     0.62395   0.94333   0.45061   0.00000  Uiso   1.00
C504   C     0.62395   0.94333   0.33913   0.00000  Uiso   1.00
C505   C     0.57064   0.92941   0.36717   0.00000  Uiso   1.00
C506   C     0.57064   0.92941   0.42257   0.00000  Uiso   1.00
C507   C     0.55664   0.87612   0.45062   0.00000  Uiso   1.00
C508   C     0.55664   0.87612   0.33913   0.00000  Uiso   1.00
C509   C     0.58508   0.80879   0.36709   0.00000  Uiso   1.00
C510   C     0.58508   0.80879   0.42265   0.00000  Uiso   1.00
C511   C     0.64210   0.75178   0.45042   0.00000  Uiso   1.00
C512   C     0.64210   0.75178   0.33932   0.00000  Uiso   1.00
C513   C     0.70938   0.72334   0.36728   0.00000  Uiso   1.00
C514   C     0.70938   0.72334   0.42246   0.00000  Uiso   1.00
C515   C     0.76269   0.73726   0.45051   0.00000  Uiso   1.00
C516   C     0.76269   0.73726   0.33924   0.00000  Uiso   1.00
C517   C     0.77669   0.79055   0.36728   0.00000  Uiso   1.00
C518   C     0.77669   0.79055   0.42246   0.00000  Uiso   1.00
C519   C     0.74825   0.85787   0.45042   0.00000  Uiso   1.00
C520   C     0.74825   0.85787   0.33932   0.00000  Uiso   1.00
C521   C     0.02456   0.91488   0.36709   0.00000  Uiso   1.00
C522   C     0.02456   0.91488   0.42265   0.00000  Uiso   1.00
C523   C     0.95729   0.94333   0.45061   0.00000  Uiso   1.00
C524   C     0.95729   0.94333   0.33913   0.00000  Uiso   1.00
C525   C     0.90398   0.92941   0.36717   0.00000  Uiso   1.00
C526   C     0.90398   0.92941   0.42257   0.00000  Uiso   1.00
C527   C     0.88997   0.87612   0.45061   0.00000  Uiso   1.00
C528   C     0.88997   0.87612   0.33913   0.00000  Uiso   1.00
C529   C     0.91841   0.80879   0.36709   0.00000  Uiso   1.00
C530   C     0.91841   0.80880   0.42265   0.00000  Uiso   1.00
C531   C     0.97543   0.75178   0.45042   0.00000  Uiso   1.00
C532   C     0.97543   0.75178   0.33932   0.00000  Uiso   1.00
C533   C     0.04271   0.72334   0.36728   0.00000  Uiso   1.00
C534   C     0.04271   0.72334   0.42246   0.00000  Uiso   1.00
C535   C     0.09602   0.73726   0.45051   0.00000  Uiso   1.00
C536   C     0.09602   0.73726   0.33924   0.00000  Uiso   1.00
C537   C     0.11003   0.79055   0.36728   0.00000  Uiso   1.00
C538   C     0.11003   0.79055   0.42246   0.00000  Uiso   1.00
C539   C     0.08158   0.85787   0.45042   0.00000  Uiso   1.00
C540   C     0.08158   0.85787   0.33932   0.00000  Uiso   1.00
C541   C     0.02457   0.24822   0.53376   0.00000  Uiso   1.00
C542   C     0.02457   0.24822   0.58932   0.00000  Uiso   1.00
C543   C     0.95729   0.27666   0.61728   0.00000  Uiso   1.00
C544   C     0.95729   0.27666   0.50580   0.00000  Uiso   1.00
C545   C     0.90398   0.26274   0.53384   0.00000  Uiso   1.00
C546   C     0.90398   0.26274   0.58924   0.00000  Uiso   1.00
C547   C     0.88997   0.20945   0.61728   0.00000  Uiso   1.00
C548   C     0.88997   0.20945   0.50580   0.00000  Uiso   1.00
C549   C     0.91841   0.14213   0.53376   0.00000  Uiso   1.00
C550   C     0.91841   0.14213   0.58932   0.00000  Uiso   1.00
C551   C     0.97543   0.08512   0.61709   0.00000  Uiso   1.00
C552   C     0.97543   0.08512   0.50599   0.00000  Uiso   1.00
C553   C     0.04271   0.05667   0.53395   0.00000  Uiso   1.00
C554   C     0.04271   0.05667   0.58913   0.00000  Uiso   1.00
C555   C     0.09602   0.07059   0.61717   0.00000  Uiso   1.00
C556   C     0.09602   0.07059   0.50590   0.00000  Uiso   1.00
C557   C     0.11003   0.12388   0.53395   0.00000  Uiso   1.00
C558   C     0.11003   0.12388   0.58913   0.00000  Uiso   1.00
C559   C     0.08159   0.19121   0.61709   0.00000  Uiso   1.00
C560   C     0.08159   0.19121   0.50599   0.00000  Uiso   1.00
C561   C     0.35790   0.24822   0.53376   0.00000  Uiso   1.00
C562   C     0.35790   0.24822   0.58932   0.00000  Uiso   1.00
C563   C     0.29062   0.27666   0.61728   0.00000  Uiso   1.00
C564   C     0.29062   0.27666   0.50580   0.00000  Uiso   1.00
C565   C     0.23731   0.26274   0.53384   0.00000  Uiso   1.00
C566   C     0.23731   0.26274   0.58924   0.00000  Uiso   1.00
C567   C     0.22330   0.20945   0.61728   0.00000  Uiso   1.00
C568   C     0.22330   0.20945   0.50580   0.00000  Uiso   1.00
C569   C     0.25175   0.14213   0.53376   0.00000  Uiso   1.00
C570   C     0.25175   0.14213   0.58932   0.00000  Uiso   1.00
C571   C     0.30877   0.08512   0.61709   0.00000  Uiso   1.00
C572   C     0.30877   0.08512   0.50599   0.00000  Uiso   1.00
C573   C     0.37604   0.05667   0.53395   0.00000  Uiso   1.00
C574   C     0.37604   0.05667   0.58913   0.00000  Uiso   1.00
C575   C     0.42935   0.07059   0.61717   0.00000  Uiso   1.00
C576   C     0.42935   0.07059   0.50590   0.00000  Uiso   1.00
C577   C     0.44336   0.12388   0.53395   0.00000  Uiso   1.00
C578   C     0.44336   0.12388   0.58913   0.00000  Uiso   1.00
C579   C     0.41492   0.19121   0.61709   0.00000  Uiso   1.00
C580   C     0.41492   0.19121   0.50599   0.00000  Uiso   1.00
C581   C     0.69123   0.24822   0.53376   0.00000  Uiso   1.00
C582   C     0.69123   0.24822   0.58932   0.00000  Uiso   1.00
C583   C     0.62395   0.27666   0.61728   0.00000  Uiso   1.00
C584   C     0.62395   0.27666   0.50580   0.00000  Uiso   1.00
C585   C     0.57064   0.26274   0.53384   0.00000  Uiso   1.00
C586   C     0.57064   0.26274   0.58924   0.00000  Uiso   1.00
C587   C     0.55664   0.20945   0.61728   0.00000  Uiso   1.00
C588   C     0.55664   0.20945   0.50580   0.00000  Uiso   1.00
C589   C     0.58508   0.14213   0.53376   0.00000  Uiso   1.00
C590   C     0.58508   0.14213   0.58932   0.00000  Uiso   1.00
C591   C     0.64210   0.08512   0.61709   0.00000  Uiso   1.00
C592   C     0.64210   0.08512   0.50599   0.00000  Uiso   1.00
C593   C     0.70938   0.05667   0.53395   0.00000  Uiso   1.00
C594   C     0.70938   0.05667   0.58913   0.00000  Uiso   1.00
C595   C     0.76269   0.07059   0.61717   0.00000  Uiso   1.00
C596   C     0.76269   0.07059   0.50590   0.00000  Uiso   1.00
C597   C     0.77669   0.12388   0.53395   0.00000  Uiso   1.00
C598   C     0.77669   0.12388   0.58913   0.00000  Uiso   1.00
C599   C     0.74825   0.19121   0.61709   0.00000  Uiso   1.00
C600   C     0.74825   0.19121   0.50599   0.00000  Uiso   1.00
C601   C     0.69123   0.58155   0.53376   0.00000  Uiso   1.00
C602   C     0.69123   0.58155   0.58932   0.00000  Uiso   1.00
C603   C     0.62395   0.61000   0.61728   0.00000  Uiso   1.00
C604   C     0.62395   0.61000   0.50580   0.00000  Uiso   1.00
C605   C     0.57064   0.59607   0.53384   0.00000  Uiso   1.00
C606   C     0.57064   0.59607   0.58924   0.00000  Uiso   1.00
C607   C     0.55664   0.54278   0.61728   0.00000  Uiso   1.00
C608   C     0.55664   0.54278   0.50580   0.00000  Uiso   1.00
C609   C     0.58508   0.47546   0.53376   0.00000  Uiso   1.00
C610   C     0.58508   0.47546   0.58932   0.00000  Uiso   1.00
C611   C     0.64210   0.41845   0.61709   0.00000  Uiso   1.00
C612   C     0.64210   0.41845   0.50599   0.00000  Uiso   1.00
C613   C     0.70938   0.39000   0.53395   0.00000  Uiso   1.00
C614   C     0.70938   0.39000   0.58913   0.00000  Uiso   1.00
C615   C     0.76269   0.40393   0.61717   0.00000  Uiso   1.00
C616   C     0.76269   0.40393   0.50590   0.00000  Uiso   1.00
C617   C     0.77669   0.45722   0.53395   0.00000  Uiso   1.00
C618   C     0.77669   0.45722   0.58913   0.00000  Uiso   1.00
C619   C     0.74825   0.52454   0.61709   0.00000  Uiso   1.00
C620   C     0.74825   0.52454   0.50599   0.00000  Uiso   1.00
C621   C     0.02457   0.58155   0.53376   0.00000  Uiso   1.00
C622   C     0.02456   0.58155   0.58932   0.00000  Uiso   1.00
C623   C     0.95729   0.61000   0.61728   0.00000  Uiso   1.00
C624   C     0.95729   0.61000   0.50580   0.00000  Uiso   1.00
C625   C     0.90398   0.59607   0.53384   0.00000  Uiso   1.00
C626   C     0.90398   0.59607   0.58924   0.00000  Uiso   1.00
C627   C     0.88997   0.54278   0.61728   0.00000  Uiso   1.00
C628   C     0.88997   0.54278   0.50580   0.00000  Uiso   1.00
C629   C     0.91841   0.47546   0.53376   0.00000  Uiso   1.00
C630   C     0.91841   0.47546   0.58932   0.00000  Uiso   1.00
C631   C     0.97543   0.41845   0.61709   0.00000  Uiso   1.00
C632   C     0.97543   0.41845   0.50599   0.00000  Uiso   1.00
C633   C     0.04271   0.39000   0.53395   0.00000  Uiso   1.00
C634   C     0.04271   0.39000   0.58913   0.00000  Uiso   1.00
C635   C     0.09602   0.40393   0.61717   0.00000  Uiso   1.00
C636   C     0.09602   0.40393   0.50590   0.00000  Uiso   1.00
C637   C     0.11003   0.45722   0.53395   0.00000  Uiso   1.00
C638   C     0.11003   0.45722   0.58913   0.00000  Uiso   1.00
C639   C     0.08159   0.52454   0.61709   0.00000  Uiso   1.00
C640   C     0.08158   0.52454   0.50599   0.00000  Uiso   1.00
C641   C     0.35790   0.58155   0.53376   0.00000  Uiso   1.00
C642   C     0.35790   0.58155   0.58932   0.00000  Uiso   1.00
C643   C     0.29062   0.61000   0.61728   0.00000  Uiso   1.00
C644   C     0.29062   0.61000   0.50580   0.00000  Uiso   1.00
C645   C     0.23731   0.59607   0.53384   0.00000  Uiso   1.00
C646   C     0.23731   0.59607   0.58924   0.00000  Uiso   1.00
C647   C     0.22330   0.54278   0.61728   0.00000  Uiso   1.00
C648   C     0.22330   0.54278   0.50580   0.00000  Uiso   1.00
C649   C     0.25175   0.47546   0.53376   0.00000  Uiso   1.00
C650   C     0.25175   0.47546   0.58932   0.00000  Uiso   1.00
C651   C     0.30876   0.41845   0.61709   0.00000  Uiso   1.00
C652   C     0.30876   0.41845   0.50599   0.00000  Uiso   1.00
C653   C     0.37604   0.39000   0.53395   0.00000  Uiso   1.00
C654   C     0.37604   0.39000   0.58913   0.00000  Uiso   1.00
C655   C     0.42935   0.40393   0.61717   0.00000  Uiso   1.00
C656   C     0.42935   0.40393   0.50590   0.00000  Uiso   1.00
C657   C     0.44336   0.45722   0.53395   0.00000  Uiso   1.00
C658   C     0.44336   0.45722   0.58913   0.00000  Uiso   1.00
C659   C     0.41492   0.52454   0.61709   0.00000  Uiso   1.00
C660   C     0.41492   0.52454   0.50599   0.00000  Uiso   1.00
C661   C     0.35790   0.91488   0.53376   0.00000  Uiso   1.00
C662   C     0.35790   0.91488   0.58932   0.00000  Uiso   1.00
C663   C     0.29062   0.94333   0.61728   0.00000  Uiso   1.00
C664   C     0.29062   0.94333   0.50580   0.00000  Uiso   1.00
C665   C     0.23731   0.92941   0.53384   0.00000  Uiso   1.00
C666   C     0.23731   0.92941   0.58924   0.00000  Uiso   1.00
C667   C     0.22330   0.87612   0.61728   0.00000  Uiso   1.00
C668   C     0.22330   0.87612   0.50580   0.00000  Uiso   1.00
C669   C     0.25175   0.80879   0.53376   0.00000  Uiso   1.00
C670   C     0.25175   0.80879   0.58932   0.00000  Uiso   1.00
C671   C     0.30876   0.75178   0.61709   0.00000  Uiso   1.00
C672   C     0.30876   0.75178   0.50599   0.00000  Uiso   1.00
C673   C     0.37604   0.72334   0.53395   0.00000  Uiso   1.00
C674   C     0.37604   0.72334   0.58913   0.00000  Uiso   1.00
C675   C     0.42935   0.73726   0.61717   0.00000  Uiso   1.00
C676   C     0.42935   0.73726   0.50590   0.00000  Uiso   1.00
C677   C     0.44336   0.79055   0.53395   0.00000  Uiso   1.00
C678   C     0.44336   0.79055   0.58913   0.00000  Uiso   1.00
C679   C     0.41492   0.85787   0.61709   0.00000  Uiso   1.00
C680   C     0.41492   0.85787   0.50599   0.00000  Uiso   1.00
C681   C     0.69123   0.91488   0.53376   0.00000  Uiso   1.00
C682   C     0.69123   0.91488   0.58932   0.00000  Uiso   1.00
C683   C     0.62395   0.94333   0.61728   0.00000  Uiso   1.00
C684   C     0.62395   0.94333   0.50580   0.00000  Uiso   1.00
C685   C     0.57064   0.92941   0.53384   0.00000  Uiso   1.00
C686   C     0.57064   0.92941   0.58924   0.00000  Uiso   1.00
C687   C     0.55664   0.87612   0.61728   0.00000  Uiso   1.00
C688   C     0.55664   0.87612   0.50579   0.00000  Uiso   1.00
C689   C     0.58508   0.80879   0.53376   0.00000  Uiso   1.00
C690   C     0.58508   0.80879   0.58932   0.00000  Uiso   1.00
C691   C     0.64210   0.75178   0.61709   0.00000  Uiso   1.00
C692   C     0.64210   0.75178   0.50599   0.00000  Uiso   1.00
C693   C     0.70938   0.72334   0.53395   0.00000  Uiso   1.00
C694   C     0.70938   0.72334   0.58913   0.00000  Uiso   1.00
C695   C     0.76269   0.73726   0.61717   0.00000  Uiso   1.00
C696   C     0.76269   0.73726   0.50590   0.00000  Uiso   1.00
C697   C     0.77669   0.79055   0.53395   0.00000  Uiso   1.00
C698   C     0.77669   0.79055   0.58913   0.00000  Uiso   1.00
C699   C     0.74825   0.85787   0.61709   0.00000  Uiso   1.00
C700   C     0.74825   0.85787   0.50599   0.00000  Uiso   1.00
C701   C     0.02456   0.91488   0.53376   0.00000  Uiso   1.00
C702   C     0.02456   0.91488   0.58932   0.00000  Uiso   1.00
C703   C     0.95729   0.94333   0.61728   0.00000  Uiso   1.00
C704   C     0.95729   0.94333   0.50580   0.00000  Uiso   1.00
C705   C     0.90398   0.92941   0.53384   0.00000  Uiso   1.00
C706   C     0.90398   0.92941   0.58924   0.00000  Uiso   1.00
C707   C     0.88997   0.87612   0.61728   0.00000  Uiso   1.00
C708   C     0.88997   0.87612   0.50580   0.00000  Uiso   1.00
C709   C     0.91841   0.80879   0.53376   0.00000  Uiso   1.00
C710   C     0.91841   0.80879   0.58932   0.00000  Uiso   1.00
C711   C     0.97543   0.75178   0.61709   0.00000  Uiso   1.00
C712   C     0.97543   0.75178   0.50599   0.00000  Uiso   1.00
C713   C     0.04271   0.72334   0.53395   0.00000  Uiso   1.00
C714   C     0.04271   0.72334   0.58913   0.00000  Uiso   1.00
C715   C     0.09602   0.73726   0.61717   0.00000  Uiso   1.00
C716   C     0.09602   0.73726   0.50590   0.00000  Uiso   1.00
C717   C     0.11003   0.79055   0.53395   0.00000  Uiso   1.00
C718   C     0.11003   0.79055   0.58913   0.00000  Uiso   1.00
C719   C     0.08158   0.85787   0.61709   0.00000  Uiso   1.00
C720   C     0.08158   0.85787   0.50599   0.00000  Uiso   1.00
C721   C     0.02457   0.24822   0.70042   0.00000  Uiso   1.00
C722   C     0.02457   0.24822   0.75599   0.00000  Uiso   1.00
C723   C     0.95729   0.27666   0.78395   0.00000  Uiso   1.00
C724   C     0.95729   0.27666   0.67246   0.00000  Uiso   1.00
C725   C     0.90398   0.26274   0.70051   0.00000  Uiso   1.00
C726   C     0.90398   0.26274   0.75590   0.00000  Uiso   1.00
C727   C     0.88997   0.20945   0.78395   0.00000  Uiso   1.00
C728   C     0.88997   0.20945   0.67246   0.00000  Uiso   1.00
C729   C     0.91841   0.14213   0.70042   0.00000  Uiso   1.00
C730   C     0.91841   0.14213   0.75599   0.00000  Uiso   1.00
C731   C     0.97543   0.08512   0.78376   0.00000  Uiso   1.00
C732   C     0.97543   0.08512   0.67265   0.00000  Uiso   1.00
C733   C     0.04271   0.05667   0.70061   0.00000  Uiso   1.00
C734   C     0.04271   0.05667   0.75580   0.00000  Uiso   1.00
C735   C     0.09602   0.07059   0.78384   0.00000  Uiso   1.00
C736   C     0.09602   0.07059   0.67257   0.00000  Uiso   1.00
C737   C     0.11003   0.12388   0.70062   0.00000  Uiso   1.00
C738   C     0.11003   0.12388   0.75580   0.00000  Uiso   1.00
C739   C     0.08159   0.19121   0.78376   0.00000  Uiso   1.00
C740   C     0.08159   0.19121   0.67265   0.00000  Uiso   1.00
C741   C     0.35790   0.24822   0.70042   0.00000  Uiso   1.00
C742   C     0.35790   0.24822   0.75599   0.00000  Uiso   1.00
C743   C     0.29062   0.27666   0.78395   0.00000  Uiso   1.00
C744   C     0.29062   0.27666   0.67246   0.00000  Uiso   1.00
C745   C     0.23731   0.26274   0.70051   0.00000  Uiso   1.00
C746   C     0.23731   0.26274   0.75590   0.00000  Uiso   1.00
C747   C     0.22330   0.20945   0.78395   0.00000  Uiso   1.00
C748   C     0.22330   0.20945   0.67246   0.00000  Uiso   1.00
C749   C     0.25175   0.14213   0.70042   0.00000  Uiso   1.00
C750   C     0.25175   0.14213   0.75599   0.00000  Uiso   1.00
C751   C     0.30877   0.08512   0.78376   0.00000  Uiso   1.00
C752   C     0.30877   0.08512   0.67265   0.00000  Uiso   1.00
C753   C     0.37604   0.05667   0.70061   0.00000  Uiso   1.00
C754   C     0.37604   0.05667   0.75580   0.00000  Uiso   1.00
C755   C     0.42935   0.07059   0.78384   0.00000  Uiso   1.00
C756   C     0.42935   0.07059   0.67257   0.00000  Uiso   1.00
C757   C     0.44336   0.12388   0.70061   0.00000  Uiso   1.00
C758   C     0.44336   0.12388   0.75580   0.00000  Uiso   1.00
C759   C     0.41492   0.19121   0.78376   0.00000  Uiso   1.00
C760   C     0.41492   0.19121   0.67265   0.00000  Uiso   1.00
C761   C     0.69123   0.24822   0.70042   0.00000  Uiso   1.00
C762   C     0.69123   0.24822   0.75599   0.00000  Uiso   1.00
C763   C     0.62395   0.27666   0.78395   0.00000  Uiso   1.00
C764   C     0.62395   0.27666   0.67246   0.00000  Uiso   1.00
C765   C     0.57064   0.26274   0.70051   0.00000  Uiso   1.00
C766   C     0.57064   0.26274   0.75590   0.00000  Uiso   1.00
C767   C     0.55664   0.20945   0.78395   0.00000  Uiso   1.00
C768   C     0.55664   0.20945   0.67246   0.00000  Uiso   1.00
C769   C     0.58508   0.14213   0.70042   0.00000  Uiso   1.00
C770   C     0.58508   0.14213   0.75599   0.00000  Uiso   1.00
C771   C     0.64210   0.08512   0.78376   0.00000  Uiso   1.00
C772   C     0.64210   0.08512   0.67265   0.00000  Uiso   1.00
C773   C     0.70938   0.05667   0.70061   0.00000  Uiso   1.00
C774   C     0.70938   0.05667   0.75580   0.00000  Uiso   1.00
C775   C     0.76269   0.07059   0.78384   0.00000  Uiso   1.00
C776   C     0.76269   0.07059   0.67257   0.00000  Uiso   1.00
C777   C     0.77669   0.12388   0.70062   0.00000  Uiso   1.00
C778   C     0.77669   0.12388   0.75580   0.00000  Uiso   1.00
C779   C     0.74825   0.19121   0.78376   0.00000  Uiso   1.00
C780   C     0.74825   0.19121   0.67265   0.00000  Uiso   1.00
C781   C     0.69123   0.58155   0.70042   0.00000  Uiso   1.00
C782   C     0.69123   0.58155   0.75599   0.00000  Uiso   1.00
C783   C     0.62395   0.61000   0.78395   0.00000  Uiso   1.00
C784   C     0.62395   0.61000   0.67246   0.00000  Uiso   1.00
C785   C     0.57064   0.59607   0.70051   0.00000  Uiso   1.00
C786   C     0.57064   0.59607   0.75590   0.00000  Uiso   1.00
C787   C     0.55664   0.54278   0.78395   0.00000  Uiso   1.00
C788   C     0.55664   0.54278   0.67246   0.00000  Uiso   1.00
C789   C     0.58508   0.47546   0.70042   0.00000  Uiso   1.00
C790   C     0.58508   0.47546   0.75599   0.00000  Uiso   1.00
C791   C     0.64210   0.41845   0.78376   0.00000  Uiso   1.00
C792   C     0.64210   0.41845   0.67265   0.00000  Uiso   1.00
C793   C     0.70938   0.39000   0.70061   0.00000  Uiso   1.00
C794   C     0.70938   0.39000   0.75580   0.00000  Uiso   1.00
C795   C     0.76269   0.40393   0.78384   0.00000  Uiso   1.00
C796   C     0.76269   0.40393   0.67257   0.00000  Uiso   1.00
C797   C     0.77669   0.45722   0.70062   0.00000  Uiso   1.00
C798   C     0.77669   0.45722   0.75580   0.00000  Uiso   1.00
C799   C     0.74825   0.52454   0.78376   0.00000  Uiso   1.00
C800   C     0.74825   0.52454   0.67265   0.00000  Uiso   1.00
C801   C     0.02457   0.58155   0.70042   0.00000  Uiso   1.00
C802   C     0.02457   0.58155   0.75599   0.00000  Uiso   1.00
C803   C     0.95729   0.61000   0.78395   0.00000  Uiso   1.00
C804   C     0.95729   0.61000   0.67246   0.00000  Uiso   1.00
C805   C     0.90398   0.59607   0.70051   0.00000  Uiso   1.00
C806   C     0.90398   0.59607   0.75590   0.00000  Uiso   1.00
C807   C     0.88997   0.54278   0.78395   0.00000  Uiso   1.00
C808   C     0.88997   0.54278   0.67246   0.00000  Uiso   1.00
C809   C     0.91841   0.47546   0.70042   0.00000  Uiso   1.00
C810   C     0.91841   0.47546   0.75599   0.00000  Uiso   1.00
C811   C     0.97543   0.41845   0.78376   0.00000  Uiso   1.00
C812   C     0.97543   0.41845   0.67265   0.00000  Uiso   1.00
C813   C     0.04271   0.39000   0.70061   0.00000  Uiso   1.00
C814   C     0.04271   0.39000   0.75580   0.00000  Uiso   1.00
C815   C     0.09602   0.40393   0.78384   0.00000  Uiso   1.00
C816   C     0.09602   0.40393   0.67257   0.00000  Uiso   1.00
C817   C     0.11003   0.45722   0.70062   0.00000  Uiso   1.00
C818   C     0.11003   0.45722   0.75580   0.00000  Uiso   1.00
C819   C     0.08158   0.52454   0.78376   0.00000  Uiso   1.00
C820   C     0.08158   0.52454   0.67265   0.00000  Uiso   1.00
C821   C     0.35790   0.58155   0.70042   0.00000  Uiso   1.00
C822   C     0.35790   0.58155   0.75599   0.00000  Uiso   1.00
C823   C     0.29062   0.61000   0.78395   0.00000  Uiso   1.00
C824   C     0.29062   0.61000   0.67246   0.00000  Uiso   1.00
C825   C     0.23731   0.59607   0.70051   0.00000  Uiso   1.00
C826   C     0.23731   0.59607   0.75590   0.00000  Uiso   1.00
C827   C     0.22330   0.54278   0.78395   0.00000  Uiso   1.00
C828   C     0.22330   0.54278   0.67246   0.00000  Uiso   1.00
C829   C     0.25175   0.47546   0.70042   0.00000  Uiso   1.00
C830   C     0.25175   0.47546   0.75599   0.00000  Uiso   1.00
C831   C     0.30876   0.41845   0.78376   0.00000  Uiso   1.00
C832   C     0.30876   0.41845   0.67265   0.00000  Uiso   1.00
C833   C     0.37604   0.39000   0.70061   0.00000  Uiso   1.00
C834   C     0.37604   0.39000   0.75580   0.00000  Uiso   1.00
C835   C     0.42935   0.40393   0.78384   0.00000  Uiso   1.00
C836   C     0.42935   0.40393   0.67257   0.00000  Uiso   1.00
C837   C     0.44336   0.45722   0.70062   0.00000  Uiso   1.00
C838   C     0.44336   0.45722   0.75580   0.00000  Uiso   1.00
C839   C     0.41492   0.52454   0.78376   0.00000  Uiso   1.00
C840   C     0.41492   0.52454   0.67265   0.00000  Uiso   1.00
C841   C     0.35790   0.91488   0.70042   0.00000  Uiso   1.00
C842   C     0.35790   0.91488   0.75599   0.00000  Uiso   1.00
C843   C     0.29062   0.94333   0.78395   0.00000  Uiso   1.00
C844   C     0.29062   0.94333   0.67246   0.00000  Uiso   1.00
C845   C     0.23731   0.92941   0.70051   0.00000  Uiso   1.00
C846   C     0.23731   0.92941   0.75590   0.00000  Uiso   1.00
C847   C     0.22330   0.87612   0.78395   0.00000  Uiso   1.00
C848   C     0.22330   0.87612   0.67246   0.00000  Uiso   1.00
C849   C     0.25175   0.80879   0.70042   0.00000  Uiso   1.00
C850   C     0.25175   0.80879   0.75599   0.00000  Uiso   1.00
C851   C     0.30877   0.75178   0.78376   0.00000  Uiso   1.00
C852   C     0.30876   0.75178   0.67265   0.00000  Uiso   1.00
C853   C     0.37604   0.72334   0.70061   0.00000  Uiso   1.00
C854   C     0.37604   0.72334   0.75580   0.00000  Uiso   1.00
C855   C     0.42935   0.73726   0.78384   0.00000  Uiso   1.00
C856   C     0.42935   0.73726   0.67257   0.00000  Uiso   1.00
C857   C     0.44336   0.79055   0.70062   0.00000  Uiso   1.00
C858   C     0.44336   0.79055   0.75580   0.00000  Uiso   1.00
C859   C     0.41492   0.85787   0.78376   0.00000  Uiso   1.00
C860   C     0.41492   0.85787   0.67265   0.00000  Uiso   1.00
C861   C     0.69123   0.91488   0.70042   0.00000  Uiso   1.00
C862   C     0.69123   0.91488   0.75599   0.00000  Uiso   1.00
C863   C     0.62395   0.94333   0.78395   0.00000  Uiso   1.00
C864   C     0.62395   0.94333   0.67246   0.00000  Uiso   1.00
C865   C     0.57064   0.92941   0.70051   0.00000  Uiso   1.00
C866   C     0.57064   0.92941   0.75590   0.00000  Uiso   1.00
C867   C     0.55664   0.87612   0.78395   0.00000  Uiso   1.00
C868   C     0.55664   0.87612   0.67246   0.00000  Uiso   1.00
C869   C     0.58508   0.80880   0.70042   0.00000  Uiso   1.00
C870   C     0.58508   0.80879   0.75599   0.00000  Uiso   1.00
C871   C     0.64210   0.75178   0.78376   0.00000  Uiso   1.00
C872   C     0.64210   0.75178   0.67265   0.00000  Uiso   1.00
C873   C     0.70938   0.72334   0.70061   0.00000  Uiso   1.00
C874   C     0.70938   0.72334   0.75580   0.00000  Uiso   1.00
C875   C     0.76269   0.73726   0.78384   0.00000  Uiso   1.00
C876   C     0.76269   0.73726   0.67257   0.00000  Uiso   1.00
C877   C     0.77669   0.79055   0.70062   0.00000  Uiso   1.00
C878   C     0.77669   0.79055   0.75580   0.00000  Uiso   1.00
C879   C     0.74825   0.85787   0.78376   0.00000  Uiso   1.00
C880   C     0.74825   0.85787   0.67265   0.00000  Uiso   1.00
C881   C     0.02456   0.91488   0.70042   0.00000  Uiso   1.00
C882   C     0.02456   0.91488   0.75599   0.00000  Uiso   1.00
C883   C     0.95729   0.94333   0.78395   0.00000  Uiso   1.00
C884   C     0.95729   0.94333   0.67246   0.00000  Uiso   1.00
C885   C     0.90398   0.92941   0.70051   0.00000  Uiso   1.00
C886   C     0.90398   0.92941   0.75590   0.00000  Uiso   1.00
C887   C     0.88997   0.87612   0.78395   0.00000  Uiso   1.00
C888   C     0.88997   0.87612   0.67246   0.00000  Uiso   1.00
C889   C     0.91841   0.80879   0.70042   0.00000  Uiso   1.00
C890   C     0.91841   0.80879   0.75599   0.00000  Uiso   1.00
C891   C     0.97543   0.75178   0.78376   0.00000  Uiso   1.00
C892   C     0.97543   0.75178   0.67265   0.00000  Uiso   1.00
C893   C     0.04271   0.72334   0.70061   0.00000  Uiso   1.00
C894   C     0.04271   0.72334   0.75580   0.00000  Uiso   1.00
C895   C     0.09602   0.73726   0.78384   0.00000  Uiso   1.00
C896   C     0.09602   0.73726   0.67257   0.00000  Uiso   1.00
C897   C     0.11003   0.79055   0.70061   0.00000  Uiso   1.00
C898   C     0.11003   0.79055   0.75580   0.00000  Uiso   1.00
C899   C     0.08158   0.85787   0.78376   0.00000  Uiso   1.00
C900   C     0.08158   0.85787   0.67265   0.00000  Uiso   1.00
C901   C     0.02457   0.24822   0.86709   0.00000  Uiso   1.00
C902   C     0.02457   0.24822   0.92265   0.00000  Uiso   1.00
C903   C     0.95729   0.27666   0.95061   0.00000  Uiso   1.00
C904   C     0.95729   0.27666   0.83913   0.00000  Uiso   1.00
C905   C     0.90398   0.26274   0.86717   0.00000  Uiso   1.00
C906   C     0.90398   0.26274   0.92257   0.00000  Uiso   1.00
C907   C     0.88997   0.20945   0.95061   0.00000  Uiso   1.00
C908   C     0.88997   0.20945   0.83913   0.00000  Uiso   1.00
C909   C     0.91841   0.14213   0.86709   0.00000  Uiso   1.00
C910   C     0.91841   0.14213   0.92265   0.00000  Uiso   1.00
C911   C     0.97543   0.08512   0.95042   0.00000  Uiso   1.00
C912   C     0.97543   0.08512   0.83932   0.00000  Uiso   1.00
C913   C     0.04271   0.05667   0.86728   0.00000  Uiso   1.00
C914   C     0.04271   0.05667   0.92246   0.00000  Uiso   1.00
C915   C     0.09602   0.07059   0.95051   0.00000  Uiso   1.00
C916   C     0.09602   0.07059   0.83924   0.00000  Uiso   1.00
C917   C     0.11003   0.12388   0.86728   0.00000  Uiso   1.00
C918   C     0.11003   0.12388   0.92246   0.00000  Uiso   1.00
C919   C     0.08159   0.19121   0.95042   0.00000  Uiso   1.00
C920   C     0.08159   0.19121   0.83932   0.00000  Uiso   1.00
C921   C     0.35790   0.24822   0.86709   0.00000  Uiso   1.00
C922   C     0.35790   0.24822   0.92265   0.00000  Uiso   1.00
C923   C     0.29062   0.27666   0.95061   0.00000  Uiso   1.00
C924   C     0.29062   0.27666   0.83913   0.00000  Uiso   1.00
C925   C     0.23731   0.26274   0.86717   0.00000  Uiso   1.00
C926   C     0.23731   0.26274   0.92257   0.00000  Uiso   1.00
C927   C     0.22331   0.20945   0.95061   0.00000  Uiso   1.00
C928   C     0.22330   0.20945   0.83913   0.00000  Uiso   1.00
C929   C     0.25175   0.14213   0.86709   0.00000  Uiso   1.00
C930   C     0.25175   0.14213   0.92265   0.00000  Uiso   1.00
C931   C     0.30877   0.08512   0.95042   0.00000  Uiso   1.00
C932   C     0.30877   0.08512   0.83932   0.00000  Uiso   1.00
C933   C     0.37604   0.05667   0.86728   0.00000  Uiso   1.00
C934   C     0.37604   0.05667   0.92246   0.00000  Uiso   1.00
C935   C     0.42935   0.07060   0.95051   0.00000  Uiso   1.00
C936   C     0.42935   0.07059   0.83924   0.00000  Uiso   1.00
C937   C     0.44336   0.12388   0.86728   0.00000  Uiso   1.00
C938   C     0.44336   0.12388   0.92246   0.00000  Uiso   1.00
C939   C     0.41492   0.19121   0.95042   0.00000  Uiso   1.00
C940   C     0.41492   0.19121   0.83932   0.00000  Uiso   1.00
C941   C     0.69123   0.24822   0.86709   0.00000  Uiso   1.00
C942   C     0.69123   0.24822   0.92265   0.00000  Uiso   1.00
C943   C     0.62395   0.27666   0.95061   0.00000  Uiso   1.00
C944   C     0.62395   0.27666   0.83913   0.00000  Uiso   1.00
C945   C     0.57064   0.26274   0.86717   0.00000  Uiso   1.00
C946   C     0.57064   0.26274   0.92257   0.00000  Uiso   1.00
C947   C     0.55664   0.20945   0.95061   0.00000  Uiso   1.00
C948   C     0.55664   0.20945   0.83913   0.00000  Uiso   1.00
C949   C     0.58508   0.14213   0.86709   0.00000  Uiso   1.00
C950   C     0.58508   0.14213   0.92265   0.00000  Uiso   1.00
C951   C     0.64210   0.08512   0.95042   0.00000  Uiso   1.00
C952   C     0.64210   0.08512   0.83932   0.00000  Uiso   1.00
C953   C     0.70938   0.05667   0.86728   0.00000  Uiso   1.00
C954   C     0.70938   0.05667   0.92246   0.00000  Uiso   1.00
C955   C     0.76269   0.07059   0.95051   0.00000  Uiso   1.00
C956   C     0.76269   0.07059   0.83924   0.00000  Uiso   1.00
C957   C     0.77669   0.12388   0.86728   0.00000  Uiso   1.00
C958   C     0.77669   0.12388   0.92246   0.00000  Uiso   1.00
C959   C     0.74825   0.19121   0.95042   0.00000  Uiso   1.00
C960   C     0.74825   0.19121   0.83932   0.00000  Uiso   1.00
C961   C     0.69123   0.58155   0.86709   0.00000  Uiso   1.00
C962   C     0.69123   0.58155   0.92265   0.00000  Uiso   1.00
C963   C     0.62395   0.61000   0.95061   0.00000  Uiso   1.00
C964   C     0.62395   0.61000   0.83913   0.00000  Uiso   1.00
C965   C     0.57064   0.59607   0.86717   0.00000  Uiso   1.00
C966   C     0.57064   0.59607   0.92257   0.00000  Uiso   1.00
C967   C     0.55664   0.54278   0.95061   0.00000  Uiso   1.00
C968   C     0.55664   0.54278   0.83913   0.00000  Uiso   1.00
C969   C     0.58508   0.47546   0.86709   0.00000  Uiso   1.00
C970   C     0.58508   0.47546   0.92265   0.00000  Uiso   1.00
C971   C     0.64210   0.41845   0.95042   0.00000  Uiso   1.00
C972   C     0.64210   0.41845   0.83932   0.00000  Uiso   1.00
C973   C     0.70938   0.39000   0.86728   0.00000  Uiso   1.00
C974   C     0.70938   0.39000   0.92246   0.00000  Uiso   1.00
C975   C     0.76269   0.40393   0.95051   0.00000  Uiso   1.00
C976   C     0.76269   0.40393   0.83924   0.00000  Uiso   1.00
C977   C     0.77669   0.45722   0.86728   0.00000  Uiso   1.00
C978   C     0.77669   0.45722   0.92246   0.00000  Uiso   1.00
C979   C     0.74825   0.52454   0.95042   0.00000  Uiso   1.00
C980   C     0.74825   0.52454   0.83932   0.00000  Uiso   1.00
C981   C     0.02457   0.58155   0.86709   0.00000  Uiso   1.00
C982   C     0.02457   0.58155   0.92265   0.00000  Uiso   1.00
C983   C     0.95729   0.61000   0.95061   0.00000  Uiso   1.00
C984   C     0.95729   0.61000   0.83913   0.00000  Uiso   1.00
C985   C     0.90398   0.59607   0.86717   0.00000  Uiso   1.00
C986   C     0.90398   0.59607   0.92257   0.00000  Uiso   1.00
C987   C     0.88997   0.54278   0.95061   0.00000  Uiso   1.00
C988   C     0.88997   0.54278   0.83913   0.00000  Uiso   1.00
C989   C     0.91841   0.47546   0.86709   0.00000  Uiso   1.00
C990   C     0.91841   0.47546   0.92265   0.00000  Uiso   1.00
C991   C     0.97543   0.41845   0.95042   0.00000  Uiso   1.00
C992   C     0.97543   0.41845   0.83932   0.00000  Uiso   1.00
C993   C     0.04271   0.39000   0.86728   0.00000  Uiso   1.00
C994   C     0.04271   0.39000   0.92246   0.00000  Uiso   1.00
C995   C     0.09602   0.40393   0.95051   0.00000  Uiso   1.00
C996   C     0.09602   0.40393   0.83924   0.00000  Uiso   1.00
C997   C     0.11003   0.45722   0.86728   0.00000  Uiso   1.00
C998   C     0.11003   0.45722   0.92246   0.00000  Uiso   1.00
C999   C     0.08158   0.52454   0.95042   0.00000  Uiso   1.00
C1000  C     0.08158   0.52454   0.83932   0.00000  Uiso   1.00
C1001  C     0.35790   0.58155   0.86709   0.00000  Uiso   1.00
C1002  C     0.35790   0.58155   0.92265   0.00000  Uiso   1.00
C1003  C     0.29062   0.61000   0.95061   0.00000  Uiso   1.00
C1004  C     0.29062   0.61000   0.83913   0.00000  Uiso   1.00
C1005  C     0.23731   0.59607   0.86717   0.00000  Uiso   1.00
C1006  C     0.23731   0.59607   0.92257   0.00000  Uiso   1.00
C1007  C     0.22330   0.54278   0.95061   0.00000  Uiso   1.00
C1008  C     0.22330   0.54278   0.83913   0.00000  Uiso   1.00
C1009  C     0.25175   0.47546   0.86709   0.00000  Uiso   1.00
C1010  C     0.25175   0.47546   0.92265   0.00000  Uiso   1.00
C1011  C     0.30876   0.41845   0.95042   0.00000  Uiso   1.00
C1012  C     0.30876   0.41845   0.83932   0.00000  Uiso   1.00
C1013  C     0.37604   0.39000   0.86728   0.00000  Uiso   1.00
C1014  C     0.37604   0.39000   0.92246   0.00000  Uiso   1.00
C1015  C     0.42935   0.40393   0.95051   0.00000  Uiso   1.00
C1016  C     0.42935   0.40393   0.83924   0.00000  Uiso   1.00
C1017  C     0.44336   0.45722   0.86728   0.00000  Uiso   1.00
C1018  C     0.44336   0.45722   0.92246   0.00000  Uiso   1.00
C1019  C     0.41492   0.52454   0.95042   0.00000  Uiso   1.00
C1020  C     0.41492   0.52454   0.83932   0.00000  Uiso   1.00
C1021  C     0.35790   0.91488   0.86709   0.00000  Uiso   1.00
C1022  C     0.35790   0.91488   0.92265   0.00000  Uiso   1.00
C1023  C     0.29062   0.94333   0.95061   0.00000  Uiso   1.00
C1024  C     0.29062   0.94333   0.83913   0.00000  Uiso   1.00
C1025  C     0.23731   0.92941   0.86717   0.00000  Uiso   1.00
C1026  C     0.23731   0.92941   0.92257   0.00000  Uiso   1.00
C1027  C     0.22330   0.87612   0.95061   0.00000  Uiso   1.00
C1028  C     0.22330   0.87612   0.83913   0.00000  Uiso   1.00
C1029  C     0.25175   0.80879   0.86709   0.00000  Uiso   1.00
C1030  C     0.25175   0.80879   0.92265   0.00000  Uiso   1.00
C1031  C     0.30876   0.75178   0.95042   0.00000  Uiso   1.00
C1032  C     0.30876   0.75178   0.83932   0.00000  Uiso   1.00
C1033  C     0.37604   0.72334   0.86728   0.00000  Uiso   1.00
C1034  C     0.37604   0.72334   0.92246   0.00000  Uiso   1.00
C1035  C     0.42935   0.73726   0.95051   0.00000  Uiso   1.00
C1036  C     0.42935   0.73726   0.83924   0.00000  Uiso   1.00
C1037  C     0.44336   0.79055   0.86728   0.00000  Uiso   1.00
C1038  C     0.44336   0.79055   0.92246   0.00000  Uiso   1.00
C1039  C     0.41492   0.85787   0.95042   0.00000  Uiso   1.00
C1040  C     0.41492   0.85787   0.83932   0.00000  Uiso   1.00
C1041  C     0.69123   0.91488   0.86709   0.00000  Uiso   1.00
C1042  C     0.69123   0.91488   0.92265   0.00000  Uiso   1.00
C1043  C     0.62395   0.94333   0.95061   0.00000  Uiso   1.00
C1044  C     0.62395   0.94333   0.83913   0.00000  Uiso   1.00
C1045  C     0.57064   0.92941   0.86717   0.00000  Uiso   1.00
C1046  C     0.57064   0.92941   0.92257   0.00000  Uiso   1.00
C1047  C     0.55664   0.87612   0.95061   0.00000  Uiso   1.00
C1048  C     0.55664   0.87612   0.83913   0.00000  Uiso   1.00
C1049  C     0.58508   0.80879   0.86709   0.00000  Uiso   1.00
C1050  C     0.58508   0.80879   0.92265   0.00000  Uiso   1.00
C1051  C     0.64210   0.75178   0.95042   0.00000  Uiso   1.00
C1052  C     0.64210   0.75178   0.83932   0.00000  Uiso   1.00
C1053  C     0.70938   0.72334   0.86728   0.00000  Uiso   1.00
C1054  C     0.70938   0.72334   0.92246   0.00000  Uiso   1.00
C1055  C     0.76269   0.73726   0.95051   0.00000  Uiso   1.00
C1056  C     0.76269   0.73726   0.83924   0.00000  Uiso   1.00
C1057  C     0.77669   0.79055   0.86728   0.00000  Uiso   1.00
C1058  C     0.77669   0.79055   0.92246   0.00000  Uiso   1.00
C1059  C     0.74825   0.85787   0.95042   0.00000  Uiso   1.00
C1060  C     0.74825   0.85787   0.83932   0.00000  Uiso   1.00
C1061  C     0.02456   0.91488   0.86709   0.00000  Uiso   1.00
C1062  C     0.02456   0.91488   0.92265   0.00000  Uiso   1.00
C1063  C     0.95729   0.94333   0.95061   0.00000  Uiso   1.00
C1064  C     0.95729   0.94333   0.83913   0.00000  Uiso   1.00
C1065  C     0.90398   0.92941   0.86717   0.00000  Uiso   1.00
C1066  C     0.90398   0.92941   0.92257   0.00000  Uiso   1.00
C1067  C     0.88997   0.87612   0.95061   0.00000  Uiso   1.00
C1068  C     0.88997   0.87612   0.83913   0.00000  Uiso   1.00
C1069  C     0.91841   0.80879   0.86709   0.00000  Uiso   1.00
C1070  C     0.91841   0.80879   0.92265   0.00000  Uiso   1.00
C1071  C     0.97543   0.75178   0.95042   0.00000  Uiso   1.00
C1072  C     0.97543   0.75178   0.83932   0.00000  Uiso   1.00
C1073  C     0.04271   0.72334   0.86728   0.00000  Uiso   1.00
C1074  C     0.04271   0.72334   0.92246   0.00000  Uiso   1.00
C1075  C     0.09602   0.73726   0.95051   0.00000  Uiso   1.00
C1076  C     0.09602   0.73726   0.83924   0.00000  Uiso   1.00
C1077  C     0.11003   0.79055   0.86728   0.00000  Uiso   1.00
C1078  C     0.11003   0.79055   0.92246   0.00000  Uiso   1.00
C1079  C     0.08158   0.85787   0.95042   0.00000  Uiso   1.00
C1080  C     0.08158   0.85787   0.83932   0.00000  Uiso   1.00
loop_
_geom_bond_atom_site_label_1
_geom_bond_atom_site_label_2
_geom_bond_distance
_geom_bond_site_symmetry_2
_ccdc_geom_bond_type
C1     C20     1.453   .     S
C1     C2      1.400   .     S
C2     C19     1.453   .     S
C3     C6      1.464   .     S
C3     C184    1.391   .     S
C4     C5      1.464   .     S
C5     C8      1.465   .     S
C5     C6      1.396   .     S
C6     C7      1.465   .     S
C7     C10     1.458   .     S
C7     C188    1.390   .     S
C8     C9      1.458   .     S
C9     C12     1.453   .     S
C9     C10     1.400   .     S
C10    C11     1.453   .     S
C11    C192    1.400   .     S
C13    C16     1.464   .     S
C13    C14     1.391   .     S
C14    C15     1.464   .     S
C15    C18     1.465   .     S
C15    C196    1.396   .     S
C16    C17     1.465   .     S
C17    C20     1.458   .     S
C17    C18     1.390   .     S
C18    C19     1.458   .     S
C19    C200    1.400   .     S
C21    C40     1.453   .     S
C21    C24     1.457   .     S
C21    C22     1.400   .     S
C22    C39     1.453   .     S
C22    C23     1.458   .     S
C23    C26     1.464   .     S
C23    C204    1.391   .     S
C24    C25     1.464   .     S
C25    C28     1.465   .     S
C25    C26     1.396   .     S
C26    C27     1.465   .     S
C27    C30     1.458   .     S
C27    C208    1.390   .     S
C28    C29     1.458   .     S
C29    C32     1.453   .     S
C29    C30     1.400   .     S
C30    C31     1.453   .     S
C31    C34     1.458   .     S
C31    C212    1.400   .     S
C32    C33     1.458   .     S
C33    C36     1.464   .     S
C33    C34     1.391   .     S
C34    C35     1.464   .     S
C35    C38     1.465   .     S
C35    C216    1.396   .     S
C36    C37     1.465   .     S
C37    C40     1.458   .     S
C37    C38     1.390   .     S
C38    C39     1.458   .     S
C39    C220    1.400   .     S
C41    C60     1.453   .     S
C41    C44     1.457   .     S
C41    C42     1.400   .     S
C42    C59     1.453   .     S
C42    C43     1.458   .     S
C43    C46     1.464   .     S
C43    C224    1.391   .     S
C44    C45     1.464   .     S
C45    C48     1.465   .     S
C45    C46     1.396   .     S
C46    C47     1.465   .     S
C47    C50     1.458   .     S
C47    C228    1.390   .     S
C48    C49     1.458   .     S
C49    C52     1.453   .     S
C49    C50     1.400   .     S
C50    C51     1.453   .     S
C51    C54     1.458   .     S
C51    C232    1.400   .     S
C52    C53     1.457   .     S
C53    C56     1.464   .     S
C53    C54     1.391   .     S
C54    C55     1.464   .     S
C55    C58     1.465   .     S
C55    C236    1.396   .     S
C56    C57     1.465   .     S
C57    C60     1.458   .     S
C57    C58     1.390   .     S
C58    C59     1.458   .     S
C59    C240    1.400   .     S
C61    C64     1.458   .     S
C61    C80     1.453   .     S
C61    C62     1.400   .     S
C62    C63     1.458   .     S
C62    C79     1.453   .     S
C63    C66     1.464   .     S
C63    C244    1.391   .     S
C64    C65     1.464   .     S
C65    C68     1.465   .     S
C65    C66     1.396   .     S
C66    C67     1.465   .     S
C67    C70     1.458   .     S
C67    C248    1.390   .     S
C68    C69     1.458   .     S
C69    C72     1.453   .     S
C69    C70     1.400   .     S
C70    C71     1.453   .     S
C71    C74     1.458   .     S
C71    C252    1.400   .     S
C72    C73     1.458   .     S
C73    C76     1.464   .     S
C73    C74     1.391   .     S
C74    C75     1.464   .     S
C75    C78     1.465   .     S
C75    C256    1.396   .     S
C76    C77     1.465   .     S
C77    C80     1.458   .     S
C77    C78     1.390   .     S
C78    C79     1.458   .     S
C79    C260    1.400   .     S
C81    C100    1.453   .     S
C81    C82     1.400   .     S
C82    C99     1.453   .     S
C83    C86     1.464   .     S
C83    C264    1.391   .     S
C84    C85     1.464   .     S
C85    C88     1.465   .     S
C85    C86     1.396   .     S
C86    C87     1.465   .     S
C87    C90     1.458   .     S
C87    C268    1.390   .     S
C88    C89     1.458   .     S
C89    C92     1.453   .     S
C89    C90     1.400   .     S
C90    C91     1.453   .     S
C91    C272    1.400   .     S
C93    C96     1.464   .     S
C93    C94     1.391   .     S
C94    C95     1.464   .     S
C95    C98     1.465   .     S
C95    C276    1.396   .     S
C96    C97     1.465   .     S
C97    C100    1.458   .     S
C97    C98     1.390   .     S
C98    C99     1.458   .     S
C99    C280    1.400   .     S
C101   C104    1.458   .     S
C101   C120    1.453   .     S
C101   C102    1.400   .     S
C102   C103    1.458   .     S
C102   C119    1.453   .     S
C103   C106    1.464   .     S
C103   C284    1.391   .     S
C104   C105    1.464   .     S
C105   C108    1.465   .     S
C105   C106    1.396   .     S
C106   C107    1.465   .     S
C107   C110    1.458   .     S
C107   C288    1.391   .     S
C108   C109    1.458   .     S
C109   C112    1.453   .     S
C109   C110    1.400   .     S
C110   C111    1.453   .     S
C111   C114    1.458   .     S
C111   C292    1.400   .     S
C112   C113    1.458   .     S
C113   C116    1.464   .     S
C113   C114    1.391   .     S
C114   C115    1.464   .     S
C115   C118    1.465   .     S
C115   C296    1.396   .     S
C116   C117    1.465   .     S
C117   C120    1.458   .     S
C117   C118    1.390   .     S
C118   C119    1.458   .     S
C119   C300    1.400   .     S
C121   C140    1.453   .     S
C121   C124    1.458   .     S
C121   C122    1.400   .     S
C122   C139    1.453   .     S
C122   C123    1.458   .     S
C123   C126    1.464   .     S
C123   C304    1.391   .     S
C124   C125    1.464   .     S
C125   C128    1.465   .     S
C125   C126    1.396   .     S
C126   C127    1.465   .     S
C127   C130    1.458   .     S
C127   C308    1.390   .     S
C128   C129    1.458   .     S
C129   C132    1.453   .     S
C129   C130    1.400   .     S
C130   C131    1.453   .     S
C131   C134    1.457   .     S
C131   C312    1.400   .     S
C132   C133    1.458   .     S
C133   C136    1.464   .     S
C133   C134    1.391   .     S
C134   C135    1.464   .     S
C135   C138    1.465   .     S
C135   C316    1.396   .     S
C136   C137    1.465   .     S
C137   C140    1.458   .     S
C137   C138    1.390   .     S
C138   C139    1.458   .     S
C139   C320    1.400   .     S
C141   C160    1.453   .     S
C141   C144    1.457   .     S
C141   C142    1.400   .     S
C142   C159    1.453   .     S
C142   C143    1.458   .     S
C143   C146    1.464   .     S
C143   C324    1.391   .     S
C144   C145    1.464   .     S
C145   C148    1.465   .     S
C145   C146    1.396   .     S
C146   C147    1.465   .     S
C147   C150    1.458   .     S
C147   C328    1.390   .     S
C148   C149    1.458   .     S
C149   C152    1.453   .     S
C149   C150    1.400   .     S
C150   C151    1.453   .     S
C151   C154    1.458   .     S
C151   C332    1.400   .     S
C152   C153    1.457   .     S
C153   C156    1.464   .     S
C153   C154    1.391   .     S
C154   C155    1.464   .     S
C155   C158    1.465   .     S
C155   C336    1.396   .     S
C156   C157    1.465   .     S
C157   C160    1.458   .     S
C157   C158    1.390   .     S
C158   C159    1.458   .     S
C159   C340    1.400   .     S
C161   C180    1.453   .     S
C161   C162    1.400   .     S
C162   C179    1.453   .     S
C163   C166    1.464   .     S
C163   C344    1.391   .     S
C164   C165    1.464   .     S
C165   C168    1.465   .     S
C165   C166    1.396   .     S
C166   C167    1.465   .     S
C167   C170    1.458   .     S
C167   C348    1.390   .     S
C168   C169    1.458   .     S
C169   C172    1.453   .     S
C169   C170    1.400   .     S
C170   C171    1.453   .     S
C171   C352    1.400   .     S
C173   C176    1.464   .     S
C173   C174    1.391   .     S
C174   C175    1.464   .     S
C175   C178    1.465   .     S
C175   C356    1.396   .     S
C176   C177    1.465   .     S
C177   C180    1.458   .     S
C177   C178    1.390   .     S
C178   C179    1.458   .     S
C179   C360    1.400   .     S
C181   C200    1.453   .     S
C181   C182    1.400   .     S
C182   C199    1.453   .     S
C183   C364    1.391   .     S
C183   C186    1.464   .     S
C184   C185    1.464   .     S
C185   C188    1.465   .     S
C185   C186    1.396   .     S
C186   C187    1.465   .     S
C187   C368    1.390   .     S
C187   C190    1.458   .     S
C188   C189    1.458   .     S
C189   C192    1.453   .     S
C189   C190    1.400   .     S
C190   C191    1.453   .     S
C191   C372    1.400   .     S
C193   C196    1.464   .     S
C193   C194    1.391   .     S
C194   C195    1.464   .     S
C195   C376    1.396   .     S
C195   C198    1.465   .     S
C196   C197    1.465   .     S
C197   C200    1.458   .     S
C197   C198    1.390   .     S
C198   C199    1.458   .     S
C199   C380    1.400   .     S
C201   C220    1.453   .     S
C201   C204    1.457   .     S
C201   C202    1.400   .     S
C202   C219    1.453   .     S
C202   C203    1.458   .     S
C203   C384    1.391   .     S
C203   C206    1.464   .     S
C204   C205    1.464   .     S
C205   C208    1.465   .     S
C205   C206    1.396   .     S
C206   C207    1.465   .     S
C207   C388    1.390   .     S
C207   C210    1.458   .     S
C208   C209    1.458   .     S
C209   C212    1.453   .     S
C209   C210    1.400   .     S
C210   C211    1.453   .     S
C211   C392    1.400   .     S
C211   C214    1.458   .     S
C212   C213    1.457   .     S
C213   C216    1.464   .     S
C213   C214    1.391   .     S
C214   C215    1.464   .     S
C215   C396    1.396   .     S
C215   C218    1.465   .     S
C216   C217    1.465   .     S
C217   C220    1.458   .     S
C217   C218    1.391   .     S
C218   C219    1.458   .     S
C219   C400    1.400   .     S
C221   C240    1.453   .     S
C221   C224    1.458   .     S
C221   C222    1.400   .     S
C222   C239    1.453   .     S
C222   C223    1.458   .     S
C223   C404    1.391   .     S
C223   C226    1.464   .     S
C224   C225    1.464   .     S
C225   C228    1.465   .     S
C225   C226    1.396   .     S
C226   C227    1.465   .     S
C227   C408    1.390   .     S
C227   C230    1.458   .     S
C228   C229    1.458   .     S
C229   C232    1.453   .     S
C229   C230    1.400   .     S
C230   C231    1.453   .     S
C231   C412    1.400   .     S
C231   C234    1.457   .     S
C232   C233    1.458   .     S
C233   C236    1.464   .     S
C233   C234    1.391   .     S
C234   C235    1.464   .     S
C235   C416    1.396   .     S
C235   C238    1.465   .     S
C236   C237    1.465   .     S
C237   C240    1.458   .     S
C237   C238    1.391   .     S
C238   C239    1.458   .     S
C239   C420    1.400   .     S
C241   C244    1.458   .     S
C241   C260    1.453   .     S
C241   C242    1.400   .     S
C242   C243    1.457   .     S
C242   C259    1.453   .     S
C243   C424    1.391   .     S
C243   C246    1.464   .     S
C244   C245    1.464   .     S
C245   C248    1.465   .     S
C245   C246    1.396   .     S
C246   C247    1.465   .     S
C247   C428    1.390   .     S
C247   C250    1.458   .     S
C248   C249    1.458   .     S
C249   C252    1.453   .     S
C249   C250    1.400   .     S
C250   C251    1.453   .     S
C251   C432    1.400   .     S
C251   C254    1.458   .     S
C252   C253    1.458   .     S
C253   C256    1.464   .     S
C253   C254    1.391   .     S
C254   C255    1.464   .     S
C255   C436    1.396   .     S
C255   C258    1.465   .     S
C256   C257    1.465   .     S
C257   C260    1.458   .     S
C257   C258    1.390   .     S
C258   C259    1.458   .     S
C259   C440    1.400   .     S
C261   C280    1.453   .     S
C261   C262    1.400   .     S
C262   C279    1.453   .     S
C263   C444    1.391   .     S
C263   C266    1.464   .     S
C264   C265    1.464   .     S
C265   C268    1.465   .     S
C265   C266    1.396   .     S
C266   C267    1.465   .     S
C267   C448    1.390   .     S
C267   C270    1.458   .     S
C268   C269    1.458   .     S
C269   C272    1.453   .     S
C269   C270    1.400   .     S
C270   C271    1.453   .     S
C271   C452    1.400   .     S
C273   C276    1.464   .     S
C273   C274    1.391   .     S
C274   C275    1.464   .     S
C275   C456    1.396   .     S
C275   C278    1.465   .     S
C276   C277    1.465   .     S
C277   C280    1.458   .     S
C277   C278    1.390   .     S
C278   C279    1.458   .     S
C279   C460    1.400   .     S
C281   C284    1.457   .     S
C281   C300    1.453   .     S
C281   C282    1.400   .     S
C282   C283    1.458   .     S
C282   C299    1.453   .     S
C283   C464    1.391   .     S
C283   C286    1.464   .     S
C284   C285    1.464   .     S
C285   C288    1.465   .     S
C285   C286    1.396   .     S
C286   C287    1.465   .     S
C287   C468    1.390   .     S
C287   C290    1.458   .     S
C288   C289    1.458   .     S
C289   C292    1.453   .     S
C289   C290    1.400   .     S
C290   C291    1.453   .     S
C291   C472    1.400   .     S
C291   C294    1.458   .     S
C292   C293    1.457   .     S
C293   C296    1.464   .     S
C293   C294    1.391   .     S
C294   C295    1.464   .     S
C295   C476    1.396   .     S
C295   C298    1.465   .     S
C296   C297    1.465   .     S
C297   C300    1.458   .     S
C297   C298    1.391   .     S
C298   C299    1.458   .     S
C299   C480    1.400   .     S
C301   C320    1.453   .     S
C301   C304    1.457   .     S
C301   C302    1.400   .     S
C302   C303    1.458   .     S
C302   C319    1.453   .     S
C303   C484    1.391   .     S
C303   C306    1.464   .     S
C304   C305    1.464   .     S
C305   C308    1.465   .     S
C305   C306    1.396   .     S
C306   C307    1.465   .     S
C307   C488    1.390   .     S
C307   C310    1.458   .     S
C308   C309    1.458   .     S
C309   C312    1.453   .     S
C309   C310    1.400   .     S
C310   C311    1.453   .     S
C311   C492    1.400   .     S
C311   C314    1.458   .     S
C312   C313    1.457   .     S
C313   C316    1.464   .     S
C313   C314    1.391   .     S
C314   C315    1.464   .     S
C315   C496    1.396   .     S
C315   C318    1.465   .     S
C316   C317    1.465   .     S
C317   C320    1.458   .     S
C317   C318    1.390   .     S
C318   C319    1.458   .     S
C319   C500    1.400   .     S
C321   C340    1.453   .     S
C321   C324    1.457   .     S
C321   C322    1.400   .     S
C322   C323    1.457   .     S
C322   C339    1.453   .     S
C323   C504    1.391   .     S
C323   C326    1.464   .     S
C324   C325    1.464   .     S
C325   C328    1.465   .     S
C325   C326    1.396   .     S
C326   C327    1.465   .     S
C327   C508    1.390   .     S
C327   C330    1.458   .     S
C328   C329    1.458   .     S
C329   C332    1.453   .     S
C329   C330    1.400   .     S
C330   C331    1.453   .     S
C331   C512    1.400   .     S
C331   C334    1.458   .     S
C332   C333    1.457   .     S
C333   C336    1.464   .     S
C333   C334    1.391   .     S
C334   C335    1.464   .     S
C335   C516    1.396   .     S
C335   C338    1.465   .     S
C336   C337    1.465   .     S
C337   C340    1.458   .     S
C337   C338    1.390   .     S
C338   C339    1.458   .     S
C339   C520    1.400   .     S
C341   C360    1.453   .     S
C341   C342    1.400   .     S
C342   C359    1.453   .     S
C343   C524    1.391   .     S
C343   C346    1.464   .     S
C344   C345    1.464   .     S
C345   C348    1.465   .     S
C345   C346    1.396   .     S
C346   C347    1.465   .     S
C347   C528    1.390   .     S
C347   C350    1.458   .     S
C348   C349    1.458   .     S
C349   C352    1.453   .     S
C349   C350    1.400   .     S
C350   C351    1.453   .     S
C351   C532    1.400   .     S
C353   C356    1.464   .     S
C353   C354    1.391   .     S
C354   C355    1.464   .     S
C355   C536    1.396   .     S
C355   C358    1.465   .     S
C356   C357    1.465   .     S
C357   C360    1.458   .     S
C357   C358    1.391   .     S
C358   C359    1.458   .     S
C359   C540    1.400   .     S
C361   C380    1.453   .     S
C361   C362    1.400   .     S
C362   C379    1.453   .     S
C363   C366    1.464   .     S
C363   C544    1.391   .     S
C364   C365    1.464   .     S
C365   C368    1.465   .     S
C365   C366    1.396   .     S
C366   C367    1.465   .     S
C367   C370    1.458   .     S
C367   C548    1.390   .     S
C368   C369    1.458   .     S
C369   C372    1.453   .     S
C369   C370    1.400   .     S
C370   C371    1.453   .     S
C371   C552    1.400   .     S
C373   C376    1.464   .     S
C373   C374    1.391   .     S
C374   C375    1.464   .     S
C375   C378    1.465   .     S
C375   C556    1.396   .     S
C376   C377    1.465   .     S
C377   C380    1.458   .     S
C377   C378    1.390   .     S
C378   C379    1.458   .     S
C379   C560    1.400   .     S
C381   C400    1.453   .     S
C381   C384    1.458   .     S
C381   C382    1.400   .     S
C382   C399    1.453   .     S
C382   C383    1.458   .     S
C383   C386    1.464   .     S
C383   C564    1.391   .     S
C384   C385    1.464   .     S
C385   C388    1.465   .     S
C385   C386    1.396   .     S
C386   C387    1.465   .     S
C387   C390    1.458   .     S
C387   C568    1.390   .     S
C388   C389    1.458   .     S
C389   C392    1.453   .     S
C389   C390    1.400   .     S
C390   C391    1.453   .     S
C391   C394    1.458   .     S
C391   C572    1.400   .     S
C392   C393    1.458   .     S
C393   C396    1.464   .     S
C393   C394    1.391   .     S
C394   C395    1.464   .     S
C395   C398    1.465   .     S
C395   C576    1.396   .     S
C396   C397    1.465   .     S
C397   C400    1.458   .     S
C397   C398    1.390   .     S
C398   C399    1.458   .     S
C399   C580    1.400   .     S
C401   C420    1.453   .     S
C401   C404    1.458   .     S
C401   C402    1.400   .     S
C402   C419    1.453   .     S
C402   C403    1.458   .     S
C403   C406    1.464   .     S
C403   C584    1.391   .     S
C404   C405    1.464   .     S
C405   C408    1.465   .     S
C405   C406    1.396   .     S
C406   C407    1.465   .     S
C407   C410    1.458   .     S
C407   C588    1.391   .     S
C408   C409    1.458   .     S
C409   C412    1.453   .     S
C409   C410    1.400   .     S
C410   C411    1.453   .     S
C411   C414    1.458   .     S
C411   C592    1.400   .     S
C412   C413    1.458   .     S
C413   C416    1.464   .     S
C413   C414    1.391   .     S
C414   C415    1.464   .     S
C415   C418    1.465   .     S
C415   C596    1.396   .     S
C416   C417    1.465   .     S
C417   C420    1.458   .     S
C417   C418    1.390   .     S
C418   C419    1.458   .     S
C419   C600    1.400   .     S
C421   C424    1.458   .     S
C421   C440    1.453   .     S
C421   C422    1.400   .     S
C422   C423    1.458   .     S
C422   C439    1.453   .     S
C423   C426    1.464   .     S
C423   C604    1.391   .     S
C424   C425    1.464   .     S
C425   C428    1.465   .     S
C425   C426    1.396   .     S
C426   C427    1.465   .     S
C427   C430    1.458   .     S
C427   C608    1.390   .     S
C428   C429    1.458   .     S
C429   C432    1.453   .     S
C429   C430    1.400   .     S
C430   C431    1.453   .     S
C431   C434    1.457   .     S
C431   C612    1.400   .     S
C432   C433    1.458   .     S
C433   C436    1.464   .     S
C433   C434    1.391   .     S
C434   C435    1.464   .     S
C435   C438    1.465   .     S
C435   C616    1.396   .     S
C436   C437    1.465   .     S
C437   C440    1.458   .     S
C437   C438    1.390   .     S
C438   C439    1.458   .     S
C439   C620    1.400   .     S
C441   C460    1.453   .     S
C441   C442    1.400   .     S
C442   C459    1.453   .     S
C443   C446    1.464   .     S
C443   C624    1.391   .     S
C444   C445    1.464   .     S
C445   C448    1.465   .     S
C445   C446    1.396   .     S
C446   C447    1.465   .     S
C447   C450    1.458   .     S
C447   C628    1.391   .     S
C448   C449    1.458   .     S
C449   C452    1.453   .     S
C449   C450    1.400   .     S
C450   C451    1.453   .     S
C451   C632    1.400   .     S
C453   C456    1.464   .     S
C453   C454    1.391   .     S
C454   C455    1.464   .     S
C455   C458    1.465   .     S
C455   C636    1.396   .     S
C456   C457    1.465   .     S
C457   C460    1.458   .     S
C457   C458    1.390   .     S
C458   C459    1.458   .     S
C459   C640    1.400   .     S
C461   C464    1.458   .     S
C461   C480    1.453   .     S
C461   C462    1.400   .     S
C462   C463    1.458   .     S
C462   C479    1.453   .     S
C463   C466    1.464   .     S
C463   C644    1.391   .     S
C464   C465    1.464   .     S
C465   C468    1.465   .     S
C465   C466    1.396   .     S
C466   C467    1.465   .     S
C467   C470    1.458   .     S
C467   C648    1.390   .     S
C468   C469    1.458   .     S
C469   C472    1.453   .     S
C469   C470    1.400   .     S
C470   C471    1.453   .     S
C471   C474    1.457   .     S
C471   C652    1.400   .     S
C472   C473    1.458   .     S
C473   C476    1.464   .     S
C473   C474    1.391   .     S
C474   C475    1.464   .     S
C475   C478    1.465   .     S
C475   C656    1.396   .     S
C476   C477    1.465   .     S
C477   C480    1.458   .     S
C477   C478    1.391   .     S
C478   C479    1.458   .     S
C479   C660    1.400   .     S
C481   C484    1.458   .     S
C481   C500    1.453   .     S
C481   C482    1.400   .     S
C482   C499    1.453   .     S
C482   C483    1.458   .     S
C483   C486    1.464   .     S
C483   C664    1.391   .     S
C484   C485    1.464   .     S
C485   C488    1.465   .     S
C485   C486    1.396   .     S
C486   C487    1.465   .     S
C487   C490    1.458   .     S
C487   C668    1.390   .     S
C488   C489    1.458   .     S
C489   C492    1.453   .     S
C489   C490    1.400   .     S
C490   C491    1.453   .     S
C491   C494    1.458   .     S
C491   C672    1.400   .     S
C492   C493    1.458   .     S
C493   C496    1.464   .     S
C493   C494    1.391   .     S
C494   C495    1.464   .     S
C495   C498    1.465   .     S
C495   C676    1.396   .     S
C496   C497    1.465   .     S
C497   C500    1.458   .     S
C497   C498    1.391   .     S
C498   C499    1.458   .     S
C499   C680    1.400   .     S
C501   C504    1.458   .     S
C501   C520    1.453   .     S
C501   C502    1.400   .     S
C502   C519    1.453   .     S
C502   C503    1.458   .     S
C503   C506    1.464   .     S
C503   C684    1.391   .     S
C504   C505    1.464   .     S
C505   C508    1.465   .     S
C505   C506    1.396   .     S
C506   C507    1.465   .     S
C507   C510    1.458   .     S
C507   C688    1.390   .     S
C508   C509    1.458   .     S
C509   C512    1.453   .     S
C509   C510    1.400   .     S
C510   C511    1.453   .     S
C511   C514    1.458   .     S
C511   C692    1.400   .     S
C512   C513    1.458   .     S
C513   C516    1.464   .     S
C513   C514    1.391   .     S
C514   C515    1.464   .     S
C515   C518    1.465   .     S
C515   C696    1.396   .     S
C516   C517    1.465   .     S
C517   C520    1.458   .     S
C517   C518    1.390   .     S
C518   C519    1.458   .     S
C519   C700    1.400   .     S
C521   C540    1.453   .     S
C521   C522    1.400   .     S
C522   C539    1.453   .     S
C523   C526    1.464   .     S
C523   C704    1.391   .     S
C524   C525    1.464   .     S
C525   C528    1.465   .     S
C525   C526    1.396   .     S
C526   C527    1.465   .     S
C527   C530    1.458   .     S
C527   C708    1.391   .     S
C528   C529    1.458   .     S
C529   C532    1.453   .     S
C529   C530    1.400   .     S
C530   C531    1.453   .     S
C531   C712    1.400   .     S
C533   C536    1.464   .     S
C533   C534    1.391   .     S
C534   C535    1.464   .     S
C535   C538    1.465   .     S
C535   C716    1.396   .     S
C536   C537    1.465   .     S
C537   C540    1.458   .     S
C537   C538    1.390   .     S
C538   C539    1.458   .     S
C539   C720    1.400   .     S
C541   C560    1.453   .     S
C541   C542    1.400   .     S
C542   C559    1.453   .     S
C543   C546    1.464   .     S
C543   C724    1.391   .     S
C544   C545    1.464   .     S
C545   C548    1.465   .     S
C545   C546    1.396   .     S
C546   C547    1.465   .     S
C547   C550    1.458   .     S
C547   C728    1.390   .     S
C548   C549    1.458   .     S
C549   C552    1.453   .     S
C549   C550    1.400   .     S
C550   C551    1.453   .     S
C551   C732    1.400   .     S
C553   C556    1.464   .     S
C553   C554    1.391   .     S
C554   C555    1.464   .     S
C555   C558    1.465   .     S
C555   C736    1.396   .     S
C556   C557    1.465   .     S
C557   C560    1.458   .     S
C557   C558    1.390   .     S
C558   C559    1.458   .     S
C559   C740    1.400   .     S
C561   C580    1.453   .     S
C561   C564    1.457   .     S
C561   C562    1.400   .     S
C562   C579    1.453   .     S
C562   C563    1.458   .     S
C563   C566    1.464   .     S
C563   C744    1.391   .     S
C564   C565    1.464   .     S
C565   C568    1.465   .     S
C565   C566    1.396   .     S
C566   C567    1.465   .     S
C567   C570    1.458   .     S
C567   C748    1.390   .     S
C568   C569    1.458   .     S
C569   C572    1.453   .     S
C569   C570    1.400   .     S
C570   C571    1.453   .     S
C571   C574    1.458   .     S
C571   C752    1.400   .     S
C572   C573    1.457   .     S
C573   C576    1.464   .     S
C573   C574    1.391   .     S
C574   C575    1.464   .     S
C575   C578    1.465   .     S
C575   C756    1.396   .     S
C576   C577    1.465   .     S
C577   C580    1.458   .     S
C577   C578    1.390   .     S
C578   C579    1.458   .     S
C579   C760    1.400   .     S
C581   C600    1.453   .     S
C581   C584    1.457   .     S
C581   C582    1.400   .     S
C582   C599    1.453   .     S
C582   C583    1.458   .     S
C583   C586    1.464   .     S
C583   C764    1.391   .     S
C584   C585    1.464   .     S
C585   C588    1.465   .     S
C585   C586    1.396   .     S
C586   C587    1.465   .     S
C587   C590    1.458   .     S
C587   C768    1.390   .     S
C588   C589    1.458   .     S
C589   C592    1.453   .     S
C589   C590    1.400   .     S
C590   C591    1.453   .     S
C591   C594    1.458   .     S
C591   C772    1.400   .     S
C592   C593    1.457   .     S
C593   C596    1.464   .     S
C593   C594    1.391   .     S
C594   C595    1.464   .     S
C595   C598    1.465   .     S
C595   C776    1.396   .     S
C596   C597    1.465   .     S
C597   C600    1.458   .     S
C597   C598    1.390   .     S
C598   C599    1.458   .     S
C599   C780    1.400   .     S
C601   C604    1.457   .     S
C601   C620    1.453   .     S
C601   C602    1.400   .     S
C602   C603    1.458   .     S
C602   C619    1.453   .     S
C603   C606    1.464   .     S
C603   C784    1.391   .     S
C604   C605    1.464   .     S
C605   C608    1.465   .     S
C605   C606    1.396   .     S
C606   C607    1.465   .     S
C607   C610    1.458   .     S
C607   C788    1.390   .     S
C608   C609    1.458   .     S
C609   C612    1.453   .     S
C609   C610    1.400   .     S
C610   C611    1.453   .     S
C611   C614    1.458   .     S
C611   C792    1.400   .     S
C612   C613    1.458   .     S
C613   C616    1.464   .     S
C613   C614    1.391   .     S
C614   C615    1.464   .     S
C615   C618    1.465   .     S
C615   C796    1.396   .     S
C616   C617    1.465   .     S
C617   C620    1.458   .     S
C617   C618    1.391   .     S
C618   C619    1.458   .     S
C619   C800    1.400   .     S
C621   C640    1.453   .     S
C621   C622    1.400   .     S
C622   C639    1.453   .     S
C623   C626    1.464   .     S
C623   C804    1.391   .     S
C624   C625    1.464   .     S
C625   C628    1.465   .     S
C625   C626    1.396   .     S
C626   C627    1.465   .     S
C627   C630    1.458   .     S
C627   C808    1.390   .     S
C628   C629    1.458   .     S
C629   C632    1.453   .     S
C629   C630    1.400   .     S
C630   C631    1.453   .     S
C631   C812    1.400   .     S
C633   C636    1.464   .     S
C633   C634    1.391   .     S
C634   C635    1.464   .     S
C635   C638    1.465   .     S
C635   C816    1.396   .     S
C636   C637    1.465   .     S
C637   C640    1.458   .     S
C637   C638    1.390   .     S
C638   C639    1.458   .     S
C639   C820    1.400   .     S
C641   C644    1.457   .     S
C641   C660    1.453   .     S
C641   C642    1.400   .     S
C642   C643    1.458   .     S
C642   C659    1.453   .     S
C643   C646    1.464   .     S
C643   C824    1.391   .     S
C644   C645    1.464   .     S
C645   C648    1.465   .     S
C645   C646    1.396   .     S
C646   C647    1.465   .     S
C647   C650    1.458   .     S
C647   C828    1.390   .     S
C648   C649    1.458   .     S
C649   C652    1.453   .     S
C649   C650    1.400   .     S
C650   C651    1.453   .     S
C651   C654    1.458   .     S
C651   C832    1.400   .     S
C652   C653    1.458   .     S
C653   C656    1.464   .     S
C653   C654    1.391   .     S
C654   C655    1.464   .     S
C655   C658    1.465   .     S
C655   C836    1.396   .     S
C656   C657    1.465   .     S
C657   C660    1.458   .     S
C657   C658    1.390   .     S
C658   C659    1.458   .     S
C659   C840    1.400   .     S
C661   C680    1.453   .     S
C661   C664    1.457   .     S
C661   C662    1.400   .     S
C662   C679    1.453   .     S
C662   C663    1.458   .     S
C663   C666    1.464   .     S
C663   C844    1.391   .     S
C664   C665    1.464   .     S
C665   C668    1.465   .     S
C665   C666    1.396   .     S
C666   C667    1.465   .     S
C667   C670    1.458   .     S
C667   C848    1.390   .     S
C668   C669    1.458   .     S
C669   C672    1.453   .     S
C669   C670    1.400   .     S
C670   C671    1.453   .     S
C671   C674    1.458   .     S
C671   C852    1.400   .     S
C672   C673    1.457   .     S
C673   C676    1.464   .     S
C673   C674    1.391   .     S
C674   C675    1.464   .     S
C675   C678    1.465   .     S
C675   C856    1.396   .     S
C676   C677    1.465   .     S
C677   C680    1.458   .     S
C677   C678    1.391   .     S
C678   C679    1.458   .     S
C679   C860    1.400   .     S
C681   C700    1.453   .     S
C681   C684    1.457   .     S
C681   C682    1.400   .     S
C682   C699    1.453   .     S
C682   C683    1.458   .     S
C683   C686    1.464   .     S
C683   C864    1.391   .     S
C684   C685    1.464   .     S
C685   C688    1.465   .     S
C685   C686    1.396   .     S
C686   C687    1.465   .     S
C687   C690    1.458   .     S
C687   C868    1.390   .     S
C688   C689    1.458   .     S
C689   C692    1.453   .     S
C689   C690    1.400   .     S
C690   C691    1.453   .     S
C691   C694    1.457   .     S
C691   C872    1.400   .     S
C692   C693    1.458   .     S
C693   C696    1.464   .     S
C693   C694    1.391   .     S
C694   C695    1.464   .     S
C695   C698    1.465   .     S
C695   C876    1.396   .     S
C696   C697    1.465   .     S
C697   C700    1.458   .     S
C697   C698    1.391   .     S
C698   C699    1.458   .     S
C699   C880    1.400   .     S
C701   C720    1.453   .     S
C701   C702    1.400   .     S
C702   C719    1.453   .     S
C703   C706    1.464   .     S
C703   C884    1.391   .     S
C704   C705    1.464   .     S
C705   C708    1.465   .     S
C705   C706    1.396   .     S
C706   C707    1.465   .     S
C707   C710    1.458   .     S
C707   C888    1.390   .     S
C708   C709    1.458   .     S
C709   C712    1.453   .     S
C709   C710    1.400   .     S
C710   C711    1.453   .     S
C711   C892    1.400   .     S
C713   C716    1.464   .     S
C713   C714    1.391   .     S
C714   C715    1.464   .     S
C715   C718    1.465   .     S
C715   C896    1.396   .     S
C716   C717    1.465   .     S
C717   C720    1.458   .     S
C717   C718    1.390   .     S
C718   C719    1.458   .     S
C719   C900    1.400   .     S
C721   C740    1.453   .     S
C721   C722    1.400   .     S
C722   C739    1.453   .     S
C723   C904    1.391   .     S
C723   C726    1.464   .     S
C724   C725    1.464   .     S
C725   C728    1.465   .     S
C725   C726    1.396   .     S
C726   C727    1.465   .     S
C727   C908    1.390   .     S
C727   C730    1.458   .     S
C728   C729    1.458   .     S
C729   C732    1.453   .     S
C729   C730    1.400   .     S
C730   C731    1.453   .     S
C731   C912    1.400   .     S
C733   C736    1.464   .     S
C733   C734    1.391   .     S
C734   C735    1.464   .     S
C735   C916    1.396   .     S
C735   C738    1.465   .     S
C736   C737    1.465   .     S
C737   C740    1.458   .     S
C737   C738    1.391   .     S
C738   C739    1.458   .     S
C739   C920    1.400   .     S
C741   C760    1.453   .     S
C741   C744    1.457   .     S
C741   C742    1.400   .     S
C742   C759    1.453   .     S
C742   C743    1.457   .     S
C743   C924    1.391   .     S
C743   C746    1.464   .     S
C744   C745    1.464   .     S
C745   C748    1.465   .     S
C745   C746    1.396   .     S
C746   C747    1.465   .     S
C747   C928    1.390   .     S
C747   C750    1.458   .     S
C748   C749    1.458   .     S
C749   C752    1.453   .     S
C749   C750    1.400   .     S
C750   C751    1.453   .     S
C751   C932    1.400   .     S
C751   C754    1.457   .     S
C752   C753    1.458   .     S
C753   C756    1.464   .     S
C753   C754    1.391   .     S
C754   C755    1.464   .     S
C755   C936    1.396   .     S
C755   C758    1.465   .     S
C756   C757    1.465   .     S
C757   C760    1.458   .     S
C757   C758    1.391   .     S
C758   C759    1.458   .     S
C759   C940    1.400   .     S
C761   C780    1.453   .     S
C761   C764    1.458   .     S
C761   C762    1.400   .     S
C762   C779    1.453   .     S
C762   C763    1.457   .     S
C763   C944    1.391   .     S
C763   C766    1.464   .     S
C764   C765    1.464   .     S
C765   C768    1.465   .     S
C765   C766    1.396   .     S
C766   C767    1.465   .     S
C767   C948    1.390   .     S
C767   C770    1.458   .     S
C768   C769    1.458   .     S
C769   C772    1.453   .     S
C769   C770    1.400   .     S
C770   C771    1.453   .     S
C771   C952    1.400   .     S
C771   C774    1.458   .     S
C772   C773    1.458   .     S
C773   C776    1.464   .     S
C773   C774    1.391   .     S
C774   C775    1.464   .     S
C775   C956    1.396   .     S
C775   C778    1.465   .     S
C776   C777    1.465   .     S
C777   C780    1.458   .     S
C777   C778    1.390   .     S
C778   C779    1.458   .     S
C779   C960    1.400   .     S
C781   C784    1.457   .     S
C781   C800    1.453   .     S
C781   C782    1.400   .     S
C782   C783    1.458   .     S
C782   C799    1.453   .     S
C783   C964    1.391   .     S
C783   C786    1.464   .     S
C784   C785    1.464   .     S
C785   C788    1.465   .     S
C785   C786    1.396   .     S
C786   C787    1.465   .     S
C787   C968    1.390   .     S
C787   C790    1.458   .     S
C788   C789    1.458   .     S
C789   C792    1.453   .     S
C789   C790    1.400   .     S
C790   C791    1.453   .     S
C791   C972    1.400   .     S
C791   C794    1.457   .     S
C792   C793    1.457   .     S
C793   C796    1.464   .     S
C793   C794    1.391   .     S
C794   C795    1.464   .     S
C795   C976    1.396   .     S
C795   C798    1.465   .     S
C796   C797    1.465   .     S
C797   C800    1.458   .     S
C797   C798    1.390   .     S
C798   C799    1.458   .     S
C799   C980    1.400   .     S
C801   C820    1.453   .     S
C801   C802    1.400   .     S
C802   C819    1.453   .     S
C803   C984    1.391   .     S
C803   C806    1.464   .     S
C804   C805    1.464   .     S
C805   C808    1.465   .     S
C805   C806    1.396   .     S
C806   C807    1.465   .     S
C807   C988    1.390   .     S
C807   C810    1.458   .     S
C808   C809    1.458   .     S
C809   C812    1.453   .     S
C809   C810    1.400   .     S
C810   C811    1.453   .     S
C811   C992    1.400   .     S
C813   C816    1.464   .     S
C813   C814    1.391   .     S
C814   C815    1.464   .     S
C815   C996    1.396   .     S
C815   C818    1.465   .     S
C816   C817    1.465   .     S
C817   C820    1.458   .     S
C817   C818    1.391   .     S
C818   C819    1.458   .     S
C819   C1000   1.400   .     S
C821   C824    1.458   .     S
C821   C840    1.453   .     S
C821   C822    1.400   .     S
C822   C823    1.458   .     S
C822   C839    1.453   .     S
C823   C1004   1.391   .     S
C823   C826    1.464   .     S
C824   C825    1.464   .     S
C825   C828    1.465   .     S
C825   C826    1.396   .     S
C826   C827    1.465   .     S
C827   C1008   1.390   .     S
C827   C830    1.458   .     S
C828   C829    1.458   .     S
C829   C832    1.453   .     S
C829   C830    1.400   .     S
C830   C831    1.453   .     S
C831   C1012   1.400   .     S
C831   C834    1.458   .     S
C832   C833    1.458   .     S
C833   C836    1.464   .     S
C833   C834    1.391   .     S
C834   C835    1.464   .     S
C835   C1016   1.396   .     S
C835   C838    1.465   .     S
C836   C837    1.465   .     S
C837   C840    1.458   .     S
C837   C838    1.391   .     S
C838   C839    1.458   .     S
C839   C1020   1.400   .     S
C841   C860    1.453   .     S
C841   C844    1.458   .     S
C841   C842    1.400   .     S
C842   C843    1.458   .     S
C842   C859    1.453   .     S
C843   C1024   1.391   .     S
C843   C846    1.464   .     S
C844   C845    1.464   .     S
C845   C848    1.465   .     S
C845   C846    1.396   .     S
C846   C847    1.465   .     S
C847   C1028   1.390   .     S
C847   C850    1.458   .     S
C848   C849    1.458   .     S
C849   C852    1.453   .     S
C849   C850    1.400   .     S
C850   C851    1.453   .     S
C851   C1032   1.400   .     S
C851   C854    1.458   .     S
C852   C853    1.458   .     S
C853   C856    1.464   .     S
C853   C854    1.391   .     S
C854   C855    1.464   .     S
C855   C1036   1.396   .     S
C855   C858    1.465   .     S
C856   C857    1.465   .     S
C857   C860    1.458   .     S
C857   C858    1.390   .     S
C858   C859    1.458   .     S
C859   C1040   1.400   .     S
C861   C880    1.453   .     S
C861   C864    1.458   .     S
C861   C862    1.400   .     S
C862   C863    1.457   .     S
C862   C879    1.453   .     S
C863   C1044   1.391   .     S
C863   C866    1.464   .     S
C864   C865    1.464   .     S
C865   C868    1.465   .     S
C865   C866    1.396   .     S
C866   C867    1.465   .     S
C867   C1048   1.391   .     S
C867   C870    1.458   .     S
C868   C869    1.458   .     S
C869   C872    1.453   .     S
C869   C870    1.400   .     S
C870   C871    1.453   .     S
C871   C1052   1.400   .     S
C871   C874    1.457   .     S
C872   C873    1.458   .     S
C873   C876    1.464   .     S
C873   C874    1.391   .     S
C874   C875    1.464   .     S
C875   C1056   1.396   .     S
C875   C878    1.465   .     S
C876   C877    1.465   .     S
C877   C880    1.458   .     S
C877   C878    1.390   .     S
C878   C879    1.458   .     S
C879   C1060   1.400   .     S
C881   C900    1.453   .     S
C881   C882    1.400   .     S
C882   C899    1.453   .     S
C883   C1064   1.391   .     S
C883   C886    1.464   .     S
C884   C885    1.464   .     S
C885   C888    1.465   .     S
C885   C886    1.396   .     S
C886   C887    1.465   .     S
C887   C1068   1.390   .     S
C887   C890    1.458   .     S
C888   C889    1.458   .     S
C889   C892    1.453   .     S
C889   C890    1.400   .     S
C890   C891    1.453   .     S
C891   C1072   1.400   .     S
C893   C896    1.464   .     S
C893   C894    1.391   .     S
C894   C895    1.464   .     S
C895   C1076   1.396   .     S
C895   C898    1.465   .     S
C896   C897    1.465   .     S
C897   C900    1.458   .     S
C897   C898    1.391   .     S
C898   C899    1.458   .     S
C899   C1080   1.400   .     S
C901   C920    1.453   .     S
C901   C902    1.400   .     S
C902   C919    1.453   .     S
C903   C906    1.464   .     S
C904   C905    1.464   .     S
C905   C908    1.465   .     S
C905   C906    1.396   .     S
C906   C907    1.465   .     S
C907   C910    1.458   .     S
C908   C909    1.458   .     S
C909   C912    1.453   .     S
C909   C910    1.400   .     S
C910   C911    1.453   .     S
C913   C916    1.464   .     S
C913   C914    1.391   .     S
C914   C915    1.464   .     S
C915   C918    1.465   .     S
C916   C917    1.465   .     S
C917   C920    1.458   .     S
C917   C918    1.390   .     S
C918   C919    1.458   .     S
C921   C940    1.453   .     S
C921   C924    1.458   .     S
C921   C922    1.400   .     S
C922   C939    1.453   .     S
C922   C923    1.457   .     S
C923   C926    1.464   .     S
C924   C925    1.464   .     S
C925   C928    1.465   .     S
C925   C926    1.396   .     S
C926   C927    1.465   .     S
C927   C930    1.458   .     S
C928   C929    1.458   .     S
C929   C932    1.453   .     S
C929   C930    1.400   .     S
C930   C931    1.453   .     S
C931   C934    1.457   .     S
C932   C933    1.458   .     S
C933   C936    1.464   .     S
C933   C934    1.391   .     S
C934   C935    1.464   .     S
C935   C938    1.465   .     S
C936   C937    1.465   .     S
C937   C940    1.458   .     S
C937   C938    1.390   .     S
C938   C939    1.458   .     S
C941   C960    1.453   .     S
C941   C944    1.457   .     S
C941   C942    1.400   .     S
C942   C959    1.453   .     S
C942   C943    1.458   .     S
C943   C946    1.464   .     S
C944   C945    1.464   .     S
C945   C948    1.465   .     S
C945   C946    1.396   .     S
C946   C947    1.465   .     S
C947   C950    1.458   .     S
C948   C949    1.458   .     S
C949   C952    1.453   .     S
C949   C950    1.400   .     S
C950   C951    1.453   .     S
C951   C954    1.458   .     S
C952   C953    1.458   .     S
C953   C956    1.464   .     S
C953   C954    1.391   .     S
C954   C955    1.464   .     S
C955   C958    1.465   .     S
C956   C957    1.465   .     S
C957   C960    1.458   .     S
C957   C958    1.390   .     S
C958   C959    1.458   .     S
C961   C964    1.458   .     S
C961   C980    1.453   .     S
C961   C962    1.400   .     S
C962   C963    1.457   .     S
C962   C979    1.453   .     S
C963   C966    1.464   .     S
C964   C965    1.464   .     S
C965   C968    1.465   .     S
C965   C966    1.396   .     S
C966   C967    1.465   .     S
C967   C970    1.458   .     S
C968   C969    1.458   .     S
C969   C972    1.453   .     S
C969   C970    1.400   .     S
C970   C971    1.453   .     S
C971   C974    1.458   .     S
C972   C973    1.458   .     S
C973   C976    1.464   .     S
C973   C974    1.391   .     S
C974   C975    1.464   .     S
C975   C978    1.465   .     S
C976   C977    1.465   .     S
C977   C980    1.458   .     S
C977   C978    1.390   .     S
C978   C979    1.458   .     S
C981   C1000   1.453   .     S
C981   C982    1.400   .     S
C982   C999    1.453   .     S
C983   C986    1.464   .     S
C984   C985    1.464   .     S
C985   C988    1.465   .     S
C985   C986    1.396   .     S
C986   C987    1.465   .     S
C987   C990    1.458   .     S
C988   C989    1.458   .     S
C989   C992    1.453   .     S
C989   C990    1.400   .     S
C990   C991    1.453   .     S
C993   C996    1.464   .     S
C993   C994    1.391   .     S
C994   C995    1.464   .     S
C995   C998    1.465   .     S
C996   C997    1.465   .     S
C997   C1000   1.458   .     S
C997   C998    1.390   .     S
C998   C999    1.458   .     S
C1001  C1004   1.458   .     S
C1001  C1020   1.453   .     S
C1001  C1002   1.400   .     S
C1002  C1003   1.457   .     S
C1002  C1019   1.453   .     S
C1003  C1006   1.464   .     S
C1004  C1005   1.464   .     S
C1005  C1008   1.465   .     S
C1005  C1006   1.396   .     S
C1006  C1007   1.465   .     S
C1007  C1010   1.458   .     S
C1008  C1009   1.458   .     S
C1009  C1012   1.453   .     S
C1009  C1010   1.400   .     S
C1010  C1011   1.453   .     S
C1011  C1014   1.457   .     S
C1012  C1013   1.458   .     S
C1013  C1016   1.464   .     S
C1013  C1014   1.391   .     S
C1014  C1015   1.464   .     S
C1015  C1018   1.465   .     S
C1016  C1017   1.465   .     S
C1017  C1020   1.458   .     S
C1017  C1018   1.390   .     S
C1018  C1019   1.458   .     S
C1021  C1024   1.458   .     S
C1021  C1040   1.453   .     S
C1021  C1022   1.400   .     S
C1022  C1039   1.453   .     S
C1022  C1023   1.458   .     S
C1023  C1026   1.464   .     S
C1024  C1025   1.464   .     S
C1025  C1028   1.465   .     S
C1025  C1026   1.396   .     S
C1026  C1027   1.465   .     S
C1027  C1030   1.458   .     S
C1028  C1029   1.458   .     S
C1029  C1032   1.453   .     S
C1029  C1030   1.400   .     S
C1030  C1031   1.453   .     S
C1031  C1034   1.458   .     S
C1032  C1033   1.458   .     S
C1033  C1036   1.464   .     S
C1033  C1034   1.391   .     S
C1034  C1035   1.464   .     S
C1035  C1038   1.465   .     S
C1036  C1037   1.465   .     S
C1037  C1040   1.458   .     S
C1037  C1038   1.390   .     S
C1038  C1039   1.458   .     S
C1041  C1044   1.458   .     S
C1041  C1060   1.453   .     S
C1041  C1042   1.400   .     S
C1042  C1059   1.453   .     S
C1042  C1043   1.458   .     S
C1043  C1046   1.464   .     S
C1044  C1045   1.464   .     S
C1045  C1048   1.465   .     S
C1045  C1046   1.396   .     S
C1046  C1047   1.465   .     S
C1047  C1050   1.458   .     S
C1048  C1049   1.458   .     S
C1049  C1052   1.453   .     S
C1049  C1050   1.400   .     S
C1050  C1051   1.453   .     S
C1051  C1054   1.458   .     S
C1052  C1053   1.458   .     S
C1053  C1056   1.464   .     S
C1053  C1054   1.391   .     S
C1054  C1055   1.464   .     S
C1055  C1058   1.465   .     S
C1056  C1057   1.465   .     S
C1057  C1060   1.458   .     S
C1057  C1058   1.390   .     S
C1058  C1059   1.458   .     S
C1061  C1080   1.453   .     S
C1061  C1062   1.400   .     S
C1062  C1079   1.453   .     S
C1063  C1066   1.464   .     S
C1064  C1065   1.464   .     S
C1065  C1068   1.465   .     S
C1065  C1066   1.396   .     S
C1066  C1067   1.465   .     S
C1067  C1070   1.458   .     S
C1068  C1069   1.458   .     S
C1069  C1072   1.453   .     S
C1069  C1070   1.400   .     S
C1070  C1071   1.453   .     S
C1073  C1076   1.464   .     S
C1073  C1074   1.391   .     S
C1074  C1075   1.464   .     S
C1075  C1078   1.465   .     S
C1076  C1077   1.465   .     S
C1077  C1080   1.458   .     S
C1077  C1078   1.391   .     S
C1078  C1079   1.458   .     S
