data_60
_audit_creation_date              2023-12-23
_audit_creation_method            'Materials Studio'
_symmetry_space_group_name_H-M    'P1'
_symmetry_Int_Tables_number       1
_symmetry_cell_setting            triclinic
loop_
_symmetry_equiv_pos_as_xyz
  x,y,z
_cell_length_a                    25.2397
_cell_length_b                    25.2403
_cell_length_c                    25.4305
_cell_angle_alpha                 90.0013
_cell_angle_beta                  90.0007
_cell_angle_gamma                 60.0054
loop_
_atom_site_label
_atom_site_type_symbol
_atom_site_fract_x
_atom_site_fract_y
_atom_site_fract_z
_atom_site_U_iso_or_equiv
_atom_site_adp_type
_atom_site_occupancy
C1     C     0.97078   0.27553   0.02093   0.00000  Uiso   1.00
C2     C     0.02922   0.24631   0.10426   0.00000  Uiso   1.00
C3     C     0.02922   0.24631   0.15970   0.00000  Uiso   1.00
C4     C     0.89110   0.24634   0.02093   0.00000  Uiso   1.00
C5     C     0.97078   0.27553   0.07637   0.00000  Uiso   1.00
C6     C     0.92033   0.27554   0.10426   0.00000  Uiso   1.00
C7     C     0.92033   0.27554   0.15970   0.00000  Uiso   1.00
C8     C     0.92033   0.13745   0.02093   0.00000  Uiso   1.00
C9     C     0.89110   0.24634   0.07637   0.00000  Uiso   1.00
C10    C     0.89110   0.19590   0.10426   0.00000  Uiso   1.00
C11    C     0.89110   0.19590   0.15970   0.00000  Uiso   1.00
C12    C     0.02922   0.05780   0.02093   0.00000  Uiso   1.00
C13    C     0.92033   0.13745   0.07637   0.00000  Uiso   1.00
C14    C     0.97078   0.08702   0.10426   0.00000  Uiso   1.00
C15    C     0.97078   0.08702   0.15970   0.00000  Uiso   1.00
C16    C     0.10890   0.08699   0.02093   0.00000  Uiso   1.00
C17    C     0.02922   0.05780   0.07637   0.00000  Uiso   1.00
C18    C     0.07967   0.05779   0.10426   0.00000  Uiso   1.00
C19    C     0.07967   0.05779   0.15970   0.00000  Uiso   1.00
C20    C     0.07967   0.19588   0.02093   0.00000  Uiso   1.00
C21    C     0.10890   0.08699   0.07637   0.00000  Uiso   1.00
C22    C     0.10890   0.13744   0.10426   0.00000  Uiso   1.00
C23    C     0.10890   0.13744   0.15970   0.00000  Uiso   1.00
C24    C     0.07967   0.19588   0.07637   0.00000  Uiso   1.00
C25    C     0.30412   0.27553   0.02093   0.00000  Uiso   1.00
C26    C     0.36255   0.24631   0.10426   0.00000  Uiso   1.00
C27    C     0.36255   0.24631   0.15970   0.00000  Uiso   1.00
C28    C     0.22443   0.24634   0.02093   0.00000  Uiso   1.00
C29    C     0.30412   0.27553   0.07637   0.00000  Uiso   1.00
C30    C     0.25367   0.27554   0.10426   0.00000  Uiso   1.00
C31    C     0.25367   0.27554   0.15970   0.00000  Uiso   1.00
C32    C     0.25367   0.13746   0.02093   0.00000  Uiso   1.00
C33    C     0.22443   0.24634   0.07637   0.00000  Uiso   1.00
C34    C     0.22443   0.19590   0.10426   0.00000  Uiso   1.00
C35    C     0.22443   0.19590   0.15970   0.00000  Uiso   1.00
C36    C     0.36255   0.05780   0.02093   0.00000  Uiso   1.00
C37    C     0.25367   0.13746   0.07637   0.00000  Uiso   1.00
C38    C     0.30412   0.08702   0.10426   0.00000  Uiso   1.00
C39    C     0.30412   0.08702   0.15970   0.00000  Uiso   1.00
C40    C     0.44224   0.08699   0.02093   0.00000  Uiso   1.00
C41    C     0.36255   0.05780   0.07637   0.00000  Uiso   1.00
C42    C     0.41300   0.05779   0.10426   0.00000  Uiso   1.00
C43    C     0.41300   0.05779   0.15970   0.00000  Uiso   1.00
C44    C     0.41300   0.19588   0.02093   0.00000  Uiso   1.00
C45    C     0.44224   0.08699   0.07637   0.00000  Uiso   1.00
C46    C     0.44224   0.13744   0.10426   0.00000  Uiso   1.00
C47    C     0.44224   0.13744   0.15970   0.00000  Uiso   1.00
C48    C     0.41300   0.19588   0.07637   0.00000  Uiso   1.00
C49    C     0.63745   0.27553   0.02093   0.00000  Uiso   1.00
C50    C     0.69588   0.24631   0.10426   0.00000  Uiso   1.00
C51    C     0.69588   0.24631   0.15970   0.00000  Uiso   1.00
C52    C     0.55776   0.24634   0.02093   0.00000  Uiso   1.00
C53    C     0.63745   0.27553   0.07637   0.00000  Uiso   1.00
C54    C     0.58700   0.27554   0.10426   0.00000  Uiso   1.00
C55    C     0.58700   0.27554   0.15970   0.00000  Uiso   1.00
C56    C     0.58700   0.13746   0.02093   0.00000  Uiso   1.00
C57    C     0.55777   0.24634   0.07637   0.00000  Uiso   1.00
C58    C     0.55776   0.19590   0.10426   0.00000  Uiso   1.00
C59    C     0.55776   0.19590   0.15970   0.00000  Uiso   1.00
C60    C     0.69589   0.05780   0.02093   0.00000  Uiso   1.00
C61    C     0.58700   0.13745   0.07637   0.00000  Uiso   1.00
C62    C     0.63745   0.08702   0.10426   0.00000  Uiso   1.00
C63    C     0.63745   0.08702   0.15970   0.00000  Uiso   1.00
C64    C     0.77557   0.08699   0.02093   0.00000  Uiso   1.00
C65    C     0.69588   0.05780   0.07637   0.00000  Uiso   1.00
C66    C     0.74633   0.05779   0.10426   0.00000  Uiso   1.00
C67    C     0.74633   0.05779   0.15970   0.00000  Uiso   1.00
C68    C     0.74633   0.19588   0.02093   0.00000  Uiso   1.00
C69    C     0.77557   0.08699   0.07637   0.00000  Uiso   1.00
C70    C     0.77557   0.13744   0.10426   0.00000  Uiso   1.00
C71    C     0.77557   0.13744   0.15970   0.00000  Uiso   1.00
C72    C     0.74633   0.19588   0.07637   0.00000  Uiso   1.00
C73    C     0.63745   0.60886   0.02092   0.00000  Uiso   1.00
C74    C     0.69588   0.57965   0.10426   0.00000  Uiso   1.00
C75    C     0.69588   0.57964   0.15970   0.00000  Uiso   1.00
C76    C     0.55776   0.57968   0.02093   0.00000  Uiso   1.00
C77    C     0.63745   0.60886   0.07637   0.00000  Uiso   1.00
C78    C     0.58700   0.60888   0.10426   0.00000  Uiso   1.00
C79    C     0.58700   0.60888   0.15970   0.00000  Uiso   1.00
C80    C     0.58700   0.47079   0.02093   0.00000  Uiso   1.00
C81    C     0.55776   0.57967   0.07637   0.00000  Uiso   1.00
C82    C     0.55776   0.52923   0.10426   0.00000  Uiso   1.00
C83    C     0.55776   0.52923   0.15970   0.00000  Uiso   1.00
C84    C     0.69589   0.39114   0.02093   0.00000  Uiso   1.00
C85    C     0.58700   0.47079   0.07637   0.00000  Uiso   1.00
C86    C     0.63745   0.42035   0.10426   0.00000  Uiso   1.00
C87    C     0.63745   0.42035   0.15970   0.00000  Uiso   1.00
C88    C     0.77557   0.42033   0.02093   0.00000  Uiso   1.00
C89    C     0.69589   0.39114   0.07637   0.00000  Uiso   1.00
C90    C     0.74633   0.39112   0.10426   0.00000  Uiso   1.00
C91    C     0.74633   0.39112   0.15970   0.00000  Uiso   1.00
C92    C     0.74633   0.52921   0.02092   0.00000  Uiso   1.00
C93    C     0.77557   0.42033   0.07637   0.00000  Uiso   1.00
C94    C     0.77557   0.47077   0.10426   0.00000  Uiso   1.00
C95    C     0.77557   0.47077   0.15970   0.00000  Uiso   1.00
C96    C     0.74633   0.52921   0.07637   0.00000  Uiso   1.00
C97    C     0.97078   0.60886   0.02092   0.00000  Uiso   1.00
C98    C     0.02922   0.57965   0.10426   0.00000  Uiso   1.00
C99    C     0.02922   0.57965   0.15970   0.00000  Uiso   1.00
C100   C     0.89110   0.57967   0.02092   0.00000  Uiso   1.00
C101   C     0.97078   0.60886   0.07637   0.00000  Uiso   1.00
C102   C     0.92033   0.60888   0.10426   0.00000  Uiso   1.00
C103   C     0.92033   0.60888   0.15970   0.00000  Uiso   1.00
C104   C     0.92033   0.47079   0.02093   0.00000  Uiso   1.00
C105   C     0.89110   0.57967   0.07637   0.00000  Uiso   1.00
C106   C     0.89110   0.52923   0.10426   0.00000  Uiso   1.00
C107   C     0.89110   0.52923   0.15970   0.00000  Uiso   1.00
C108   C     0.02922   0.39114   0.02093   0.00000  Uiso   1.00
C109   C     0.92033   0.47079   0.07637   0.00000  Uiso   1.00
C110   C     0.97078   0.42036   0.10426   0.00000  Uiso   1.00
C111   C     0.97078   0.42035   0.15970   0.00000  Uiso   1.00
C112   C     0.10890   0.42033   0.02093   0.00000  Uiso   1.00
C113   C     0.02922   0.39114   0.07637   0.00000  Uiso   1.00
C114   C     0.07967   0.39112   0.10426   0.00000  Uiso   1.00
C115   C     0.07967   0.39112   0.15970   0.00000  Uiso   1.00
C116   C     0.07967   0.52921   0.02092   0.00000  Uiso   1.00
C117   C     0.10890   0.42032   0.07637   0.00000  Uiso   1.00
C118   C     0.10890   0.47077   0.10426   0.00000  Uiso   1.00
C119   C     0.10890   0.47077   0.15970   0.00000  Uiso   1.00
C120   C     0.07967   0.52921   0.07637   0.00000  Uiso   1.00
C121   C     0.30412   0.60886   0.02093   0.00000  Uiso   1.00
C122   C     0.36255   0.57965   0.10426   0.00000  Uiso   1.00
C123   C     0.36255   0.57965   0.15970   0.00000  Uiso   1.00
C124   C     0.22443   0.57967   0.02093   0.00000  Uiso   1.00
C125   C     0.30412   0.60886   0.07637   0.00000  Uiso   1.00
C126   C     0.25367   0.60888   0.10426   0.00000  Uiso   1.00
C127   C     0.25367   0.60888   0.15970   0.00000  Uiso   1.00
C128   C     0.25367   0.47079   0.02093   0.00000  Uiso   1.00
C129   C     0.22443   0.57968   0.07637   0.00000  Uiso   1.00
C130   C     0.22443   0.52923   0.10426   0.00000  Uiso   1.00
C131   C     0.22443   0.52923   0.15970   0.00000  Uiso   1.00
C132   C     0.36255   0.39114   0.02093   0.00000  Uiso   1.00
C133   C     0.25367   0.47079   0.07637   0.00000  Uiso   1.00
C134   C     0.30412   0.42035   0.10426   0.00000  Uiso   1.00
C135   C     0.30412   0.42035   0.15970   0.00000  Uiso   1.00
C136   C     0.44224   0.42033   0.02093   0.00000  Uiso   1.00
C137   C     0.36255   0.39114   0.07637   0.00000  Uiso   1.00
C138   C     0.41300   0.39112   0.10426   0.00000  Uiso   1.00
C139   C     0.41300   0.39112   0.15971   0.00000  Uiso   1.00
C140   C     0.41300   0.52921   0.02093   0.00000  Uiso   1.00
C141   C     0.44224   0.42033   0.07637   0.00000  Uiso   1.00
C142   C     0.44224   0.47077   0.10426   0.00000  Uiso   1.00
C143   C     0.44224   0.47077   0.15970   0.00000  Uiso   1.00
C144   C     0.41300   0.52921   0.07637   0.00000  Uiso   1.00
C145   C     0.30412   0.94220   0.02093   0.00000  Uiso   1.00
C146   C     0.36255   0.91298   0.10426   0.00000  Uiso   1.00
C147   C     0.36255   0.91298   0.15970   0.00000  Uiso   1.00
C148   C     0.22443   0.91301   0.02093   0.00000  Uiso   1.00
C149   C     0.30412   0.94219   0.07637   0.00000  Uiso   1.00
C150   C     0.25367   0.94221   0.10426   0.00000  Uiso   1.00
C151   C     0.25367   0.94221   0.15970   0.00000  Uiso   1.00
C152   C     0.25366   0.80412   0.02093   0.00000  Uiso   1.00
C153   C     0.22443   0.91301   0.07637   0.00000  Uiso   1.00
C154   C     0.22443   0.86256   0.10426   0.00000  Uiso   1.00
C155   C     0.22443   0.86256   0.15970   0.00000  Uiso   1.00
C156   C     0.36255   0.72447   0.02093   0.00000  Uiso   1.00
C157   C     0.25367   0.80412   0.07637   0.00000  Uiso   1.00
C158   C     0.30412   0.75369   0.10426   0.00000  Uiso   1.00
C159   C     0.30412   0.75369   0.15970   0.00000  Uiso   1.00
C160   C     0.44224   0.75366   0.02093   0.00000  Uiso   1.00
C161   C     0.36255   0.72447   0.07637   0.00000  Uiso   1.00
C162   C     0.41300   0.72446   0.10426   0.00000  Uiso   1.00
C163   C     0.41300   0.72446   0.15970   0.00000  Uiso   1.00
C164   C     0.41300   0.86255   0.02093   0.00000  Uiso   1.00
C165   C     0.44224   0.75366   0.07637   0.00000  Uiso   1.00
C166   C     0.44224   0.80410   0.10426   0.00000  Uiso   1.00
C167   C     0.44224   0.80410   0.15970   0.00000  Uiso   1.00
C168   C     0.41300   0.86255   0.07637   0.00000  Uiso   1.00
C169   C     0.63745   0.94220   0.02093   0.00000  Uiso   1.00
C170   C     0.69588   0.91298   0.10426   0.00000  Uiso   1.00
C171   C     0.69588   0.91298   0.15970   0.00000  Uiso   1.00
C172   C     0.55776   0.91301   0.02093   0.00000  Uiso   1.00
C173   C     0.63745   0.94220   0.07637   0.00000  Uiso   1.00
C174   C     0.58700   0.94221   0.10426   0.00000  Uiso   1.00
C175   C     0.58700   0.94221   0.15970   0.00000  Uiso   1.00
C176   C     0.58700   0.80412   0.02093   0.00000  Uiso   1.00
C177   C     0.55776   0.91301   0.07637   0.00000  Uiso   1.00
C178   C     0.55776   0.86256   0.10426   0.00000  Uiso   1.00
C179   C     0.55776   0.86256   0.15970   0.00000  Uiso   1.00
C180   C     0.69589   0.72447   0.02093   0.00000  Uiso   1.00
C181   C     0.58700   0.80412   0.07637   0.00000  Uiso   1.00
C182   C     0.63745   0.75369   0.10426   0.00000  Uiso   1.00
C183   C     0.63745   0.75369   0.15970   0.00000  Uiso   1.00
C184   C     0.77557   0.75366   0.02093   0.00000  Uiso   1.00
C185   C     0.69589   0.72447   0.07637   0.00000  Uiso   1.00
C186   C     0.74633   0.72446   0.10426   0.00000  Uiso   1.00
C187   C     0.74633   0.72445   0.15970   0.00000  Uiso   1.00
C188   C     0.74633   0.86255   0.02093   0.00000  Uiso   1.00
C189   C     0.77557   0.75366   0.07637   0.00000  Uiso   1.00
C190   C     0.77557   0.80410   0.10426   0.00000  Uiso   1.00
C191   C     0.77557   0.80410   0.15970   0.00000  Uiso   1.00
C192   C     0.74633   0.86255   0.07637   0.00000  Uiso   1.00
C193   C     0.97078   0.94220   0.02093   0.00000  Uiso   1.00
C194   C     0.02922   0.91298   0.10426   0.00000  Uiso   1.00
C195   C     0.02922   0.91298   0.15970   0.00000  Uiso   1.00
C196   C     0.89110   0.91301   0.02093   0.00000  Uiso   1.00
C197   C     0.97078   0.94220   0.07637   0.00000  Uiso   1.00
C198   C     0.92033   0.94221   0.10426   0.00000  Uiso   1.00
C199   C     0.92033   0.94221   0.15970   0.00000  Uiso   1.00
C200   C     0.92033   0.80412   0.02093   0.00000  Uiso   1.00
C201   C     0.89110   0.91301   0.07637   0.00000  Uiso   1.00
C202   C     0.89110   0.86256   0.10426   0.00000  Uiso   1.00
C203   C     0.89110   0.86256   0.15970   0.00000  Uiso   1.00
C204   C     0.02922   0.72447   0.02093   0.00000  Uiso   1.00
C205   C     0.92033   0.80412   0.07637   0.00000  Uiso   1.00
C206   C     0.97078   0.75369   0.10426   0.00000  Uiso   1.00
C207   C     0.97078   0.75369   0.15970   0.00000  Uiso   1.00
C208   C     0.10890   0.75366   0.02093   0.00000  Uiso   1.00
C209   C     0.02922   0.72447   0.07637   0.00000  Uiso   1.00
C210   C     0.07967   0.72446   0.10426   0.00000  Uiso   1.00
C211   C     0.07967   0.72446   0.15970   0.00000  Uiso   1.00
C212   C     0.07967   0.86254   0.02093   0.00000  Uiso   1.00
C213   C     0.10890   0.75366   0.07637   0.00000  Uiso   1.00
C214   C     0.10890   0.80410   0.10426   0.00000  Uiso   1.00
C215   C     0.10890   0.80410   0.15970   0.00000  Uiso   1.00
C216   C     0.07967   0.86254   0.07637   0.00000  Uiso   1.00
C217   C     0.97078   0.27553   0.18759   0.00000  Uiso   1.00
C218   C     0.02922   0.24631   0.27092   0.00000  Uiso   1.00
C219   C     0.02922   0.24631   0.32637   0.00000  Uiso   1.00
C220   C     0.89110   0.24634   0.18759   0.00000  Uiso   1.00
C221   C     0.97078   0.27553   0.24304   0.00000  Uiso   1.00
C222   C     0.92033   0.27555   0.27092   0.00000  Uiso   1.00
C223   C     0.92033   0.27554   0.32637   0.00000  Uiso   1.00
C224   C     0.92033   0.13745   0.18759   0.00000  Uiso   1.00
C225   C     0.89110   0.24634   0.24304   0.00000  Uiso   1.00
C226   C     0.89110   0.19590   0.27093   0.00000  Uiso   1.00
C227   C     0.89110   0.19590   0.32637   0.00000  Uiso   1.00
C228   C     0.02922   0.05780   0.18759   0.00000  Uiso   1.00
C229   C     0.92033   0.13746   0.24304   0.00000  Uiso   1.00
C230   C     0.97078   0.08702   0.27092   0.00000  Uiso   1.00
C231   C     0.97078   0.08702   0.32637   0.00000  Uiso   1.00
C232   C     0.10890   0.08699   0.18759   0.00000  Uiso   1.00
C233   C     0.02922   0.05780   0.24304   0.00000  Uiso   1.00
C234   C     0.07967   0.05779   0.27092   0.00000  Uiso   1.00
C235   C     0.07967   0.05779   0.32637   0.00000  Uiso   1.00
C236   C     0.07967   0.19588   0.18759   0.00000  Uiso   1.00
C237   C     0.10890   0.08699   0.24304   0.00000  Uiso   1.00
C238   C     0.10890   0.13744   0.27093   0.00000  Uiso   1.00
C239   C     0.10890   0.13744   0.32637   0.00000  Uiso   1.00
C240   C     0.07967   0.19588   0.24304   0.00000  Uiso   1.00
C241   C     0.30412   0.27553   0.18759   0.00000  Uiso   1.00
C242   C     0.36255   0.24631   0.27092   0.00000  Uiso   1.00
C243   C     0.36255   0.24631   0.32637   0.00000  Uiso   1.00
C244   C     0.22443   0.24634   0.18759   0.00000  Uiso   1.00
C245   C     0.30411   0.27553   0.24304   0.00000  Uiso   1.00
C246   C     0.25367   0.27554   0.27092   0.00000  Uiso   1.00
C247   C     0.25367   0.27555   0.32637   0.00000  Uiso   1.00
C248   C     0.25367   0.13745   0.18759   0.00000  Uiso   1.00
C249   C     0.22443   0.24634   0.24304   0.00000  Uiso   1.00
C250   C     0.22443   0.19590   0.27093   0.00000  Uiso   1.00
C251   C     0.22443   0.19590   0.32637   0.00000  Uiso   1.00
C252   C     0.36255   0.05780   0.18759   0.00000  Uiso   1.00
C253   C     0.25367   0.13745   0.24304   0.00000  Uiso   1.00
C254   C     0.30412   0.08702   0.27092   0.00000  Uiso   1.00
C255   C     0.30412   0.08702   0.32637   0.00000  Uiso   1.00
C256   C     0.44224   0.08699   0.18759   0.00000  Uiso   1.00
C257   C     0.36255   0.05780   0.24304   0.00000  Uiso   1.00
C258   C     0.41300   0.05779   0.27092   0.00000  Uiso   1.00
C259   C     0.41300   0.05779   0.32637   0.00000  Uiso   1.00
C260   C     0.41300   0.19588   0.18759   0.00000  Uiso   1.00
C261   C     0.44224   0.08699   0.24304   0.00000  Uiso   1.00
C262   C     0.44224   0.13744   0.27092   0.00000  Uiso   1.00
C263   C     0.44224   0.13744   0.32637   0.00000  Uiso   1.00
C264   C     0.41300   0.19588   0.24304   0.00000  Uiso   1.00
C265   C     0.63745   0.27553   0.18759   0.00000  Uiso   1.00
C266   C     0.69588   0.24631   0.27092   0.00000  Uiso   1.00
C267   C     0.69588   0.24631   0.32637   0.00000  Uiso   1.00
C268   C     0.55776   0.24634   0.18759   0.00000  Uiso   1.00
C269   C     0.63745   0.27553   0.24304   0.00000  Uiso   1.00
C270   C     0.58700   0.27554   0.27092   0.00000  Uiso   1.00
C271   C     0.58700   0.27554   0.32637   0.00000  Uiso   1.00
C272   C     0.58700   0.13745   0.18759   0.00000  Uiso   1.00
C273   C     0.55777   0.24634   0.24304   0.00000  Uiso   1.00
C274   C     0.55776   0.19590   0.27092   0.00000  Uiso   1.00
C275   C     0.55776   0.19590   0.32637   0.00000  Uiso   1.00
C276   C     0.69589   0.05780   0.18759   0.00000  Uiso   1.00
C277   C     0.58700   0.13745   0.24304   0.00000  Uiso   1.00
C278   C     0.63745   0.08702   0.27092   0.00000  Uiso   1.00
C279   C     0.63745   0.08702   0.32637   0.00000  Uiso   1.00
C280   C     0.77557   0.08699   0.18759   0.00000  Uiso   1.00
C281   C     0.69588   0.05780   0.24304   0.00000  Uiso   1.00
C282   C     0.74633   0.05779   0.27092   0.00000  Uiso   1.00
C283   C     0.74633   0.05779   0.32637   0.00000  Uiso   1.00
C284   C     0.74633   0.19588   0.18759   0.00000  Uiso   1.00
C285   C     0.77557   0.08699   0.24304   0.00000  Uiso   1.00
C286   C     0.77557   0.13744   0.27092   0.00000  Uiso   1.00
C287   C     0.77557   0.13744   0.32637   0.00000  Uiso   1.00
C288   C     0.74633   0.19588   0.24304   0.00000  Uiso   1.00
C289   C     0.63745   0.60886   0.18759   0.00000  Uiso   1.00
C290   C     0.69588   0.57965   0.27092   0.00000  Uiso   1.00
C291   C     0.69588   0.57965   0.32637   0.00000  Uiso   1.00
C292   C     0.55776   0.57967   0.18759   0.00000  Uiso   1.00
C293   C     0.63745   0.60886   0.24304   0.00000  Uiso   1.00
C294   C     0.58700   0.60888   0.27092   0.00000  Uiso   1.00
C295   C     0.58700   0.60888   0.32637   0.00000  Uiso   1.00
C296   C     0.58700   0.47079   0.18759   0.00000  Uiso   1.00
C297   C     0.55776   0.57968   0.24304   0.00000  Uiso   1.00
C298   C     0.55776   0.52923   0.27092   0.00000  Uiso   1.00
C299   C     0.55776   0.52923   0.32637   0.00000  Uiso   1.00
C300   C     0.69589   0.39114   0.18759   0.00000  Uiso   1.00
C301   C     0.58700   0.47079   0.24304   0.00000  Uiso   1.00
C302   C     0.63745   0.42035   0.27093   0.00000  Uiso   1.00
C303   C     0.63745   0.42035   0.32637   0.00000  Uiso   1.00
C304   C     0.77557   0.42032   0.18759   0.00000  Uiso   1.00
C305   C     0.69589   0.39114   0.24304   0.00000  Uiso   1.00
C306   C     0.74633   0.39112   0.27092   0.00000  Uiso   1.00
C307   C     0.74633   0.39112   0.32637   0.00000  Uiso   1.00
C308   C     0.74633   0.52921   0.18759   0.00000  Uiso   1.00
C309   C     0.77557   0.42033   0.24304   0.00000  Uiso   1.00
C310   C     0.77557   0.47077   0.27092   0.00000  Uiso   1.00
C311   C     0.77557   0.47077   0.32637   0.00000  Uiso   1.00
C312   C     0.74633   0.52921   0.24304   0.00000  Uiso   1.00
C313   C     0.97078   0.60886   0.18759   0.00000  Uiso   1.00
C314   C     0.02922   0.57965   0.27092   0.00000  Uiso   1.00
C315   C     0.02922   0.57965   0.32637   0.00000  Uiso   1.00
C316   C     0.89110   0.57967   0.18759   0.00000  Uiso   1.00
C317   C     0.97078   0.60886   0.24304   0.00000  Uiso   1.00
C318   C     0.92033   0.60888   0.27092   0.00000  Uiso   1.00
C319   C     0.92033   0.60888   0.32637   0.00000  Uiso   1.00
C320   C     0.92033   0.47079   0.18759   0.00000  Uiso   1.00
C321   C     0.89110   0.57968   0.24304   0.00000  Uiso   1.00
C322   C     0.89110   0.52923   0.27093   0.00000  Uiso   1.00
C323   C     0.89110   0.52923   0.32637   0.00000  Uiso   1.00
C324   C     0.02922   0.39114   0.18759   0.00000  Uiso   1.00
C325   C     0.92033   0.47079   0.24304   0.00000  Uiso   1.00
C326   C     0.97078   0.42035   0.27092   0.00000  Uiso   1.00
C327   C     0.97078   0.42035   0.32637   0.00000  Uiso   1.00
C328   C     0.10890   0.42033   0.18759   0.00000  Uiso   1.00
C329   C     0.02922   0.39114   0.24304   0.00000  Uiso   1.00
C330   C     0.07967   0.39112   0.27092   0.00000  Uiso   1.00
C331   C     0.07967   0.39112   0.32637   0.00000  Uiso   1.00
C332   C     0.07967   0.52921   0.18759   0.00000  Uiso   1.00
C333   C     0.10890   0.42033   0.24304   0.00000  Uiso   1.00
C334   C     0.10890   0.47077   0.27092   0.00000  Uiso   1.00
C335   C     0.10890   0.47077   0.32637   0.00000  Uiso   1.00
C336   C     0.07967   0.52921   0.24304   0.00000  Uiso   1.00
C337   C     0.30411   0.60886   0.18759   0.00000  Uiso   1.00
C338   C     0.36255   0.57965   0.27093   0.00000  Uiso   1.00
C339   C     0.36255   0.57965   0.32637   0.00000  Uiso   1.00
C340   C     0.22443   0.57968   0.18759   0.00000  Uiso   1.00
C341   C     0.30411   0.60886   0.24304   0.00000  Uiso   1.00
C342   C     0.25367   0.60888   0.27092   0.00000  Uiso   1.00
C343   C     0.25367   0.60888   0.32637   0.00000  Uiso   1.00
C344   C     0.25367   0.47079   0.18759   0.00000  Uiso   1.00
C345   C     0.22443   0.57967   0.24304   0.00000  Uiso   1.00
C346   C     0.22443   0.52923   0.27092   0.00000  Uiso   1.00
C347   C     0.22443   0.52923   0.32637   0.00000  Uiso   1.00
C348   C     0.36255   0.39114   0.18759   0.00000  Uiso   1.00
C349   C     0.25367   0.47079   0.24304   0.00000  Uiso   1.00
C350   C     0.30412   0.42035   0.27092   0.00000  Uiso   1.00
C351   C     0.30412   0.42035   0.32637   0.00000  Uiso   1.00
C352   C     0.44224   0.42033   0.18759   0.00000  Uiso   1.00
C353   C     0.36255   0.39114   0.24304   0.00000  Uiso   1.00
C354   C     0.41300   0.39112   0.27092   0.00000  Uiso   1.00
C355   C     0.41300   0.39112   0.32637   0.00000  Uiso   1.00
C356   C     0.41300   0.52921   0.18759   0.00000  Uiso   1.00
C357   C     0.44224   0.42033   0.24304   0.00000  Uiso   1.00
C358   C     0.44224   0.47077   0.27092   0.00000  Uiso   1.00
C359   C     0.44224   0.47077   0.32637   0.00000  Uiso   1.00
C360   C     0.41300   0.52921   0.24304   0.00000  Uiso   1.00
C361   C     0.30412   0.94219   0.18759   0.00000  Uiso   1.00
C362   C     0.36255   0.91298   0.27092   0.00000  Uiso   1.00
C363   C     0.36255   0.91298   0.32637   0.00000  Uiso   1.00
C364   C     0.22443   0.91301   0.18759   0.00000  Uiso   1.00
C365   C     0.30412   0.94220   0.24304   0.00000  Uiso   1.00
C366   C     0.25367   0.94221   0.27092   0.00000  Uiso   1.00
C367   C     0.25367   0.94221   0.32637   0.00000  Uiso   1.00
C368   C     0.25367   0.80412   0.18759   0.00000  Uiso   1.00
C369   C     0.22443   0.91301   0.24304   0.00000  Uiso   1.00
C370   C     0.22443   0.86256   0.27093   0.00000  Uiso   1.00
C371   C     0.22443   0.86256   0.32637   0.00000  Uiso   1.00
C372   C     0.36255   0.72447   0.18759   0.00000  Uiso   1.00
C373   C     0.25367   0.80412   0.24304   0.00000  Uiso   1.00
C374   C     0.30412   0.75369   0.27092   0.00000  Uiso   1.00
C375   C     0.30412   0.75369   0.32637   0.00000  Uiso   1.00
C376   C     0.44224   0.75366   0.18759   0.00000  Uiso   1.00
C377   C     0.36255   0.72447   0.24304   0.00000  Uiso   1.00
C378   C     0.41300   0.72445   0.27092   0.00000  Uiso   1.00
C379   C     0.41300   0.72446   0.32637   0.00000  Uiso   1.00
C380   C     0.41300   0.86255   0.18759   0.00000  Uiso   1.00
C381   C     0.44224   0.75366   0.24304   0.00000  Uiso   1.00
C382   C     0.44224   0.80411   0.27092   0.00000  Uiso   1.00
C383   C     0.44224   0.80410   0.32637   0.00000  Uiso   1.00
C384   C     0.41300   0.86255   0.24304   0.00000  Uiso   1.00
C385   C     0.63745   0.94220   0.18759   0.00000  Uiso   1.00
C386   C     0.69588   0.91298   0.27092   0.00000  Uiso   1.00
C387   C     0.69588   0.91298   0.32637   0.00000  Uiso   1.00
C388   C     0.55777   0.91301   0.18759   0.00000  Uiso   1.00
C389   C     0.63745   0.94220   0.24304   0.00000  Uiso   1.00
C390   C     0.58700   0.94221   0.27092   0.00000  Uiso   1.00
C391   C     0.58700   0.94221   0.32637   0.00000  Uiso   1.00
C392   C     0.58700   0.80412   0.18759   0.00000  Uiso   1.00
C393   C     0.55776   0.91301   0.24304   0.00000  Uiso   1.00
C394   C     0.55776   0.86256   0.27093   0.00000  Uiso   1.00
C395   C     0.55776   0.86256   0.32637   0.00000  Uiso   1.00
C396   C     0.69589   0.72447   0.18759   0.00000  Uiso   1.00
C397   C     0.58700   0.80412   0.24304   0.00000  Uiso   1.00
C398   C     0.63745   0.75369   0.27092   0.00000  Uiso   1.00
C399   C     0.63745   0.75369   0.32637   0.00000  Uiso   1.00
C400   C     0.77557   0.75366   0.18759   0.00000  Uiso   1.00
C401   C     0.69589   0.72447   0.24304   0.00000  Uiso   1.00
C402   C     0.74633   0.72446   0.27092   0.00000  Uiso   1.00
C403   C     0.74633   0.72445   0.32637   0.00000  Uiso   1.00
C404   C     0.74633   0.86254   0.18759   0.00000  Uiso   1.00
C405   C     0.77557   0.75366   0.24304   0.00000  Uiso   1.00
C406   C     0.77557   0.80410   0.27092   0.00000  Uiso   1.00
C407   C     0.77557   0.80410   0.32637   0.00000  Uiso   1.00
C408   C     0.74633   0.86254   0.24304   0.00000  Uiso   1.00
C409   C     0.97078   0.94220   0.18759   0.00000  Uiso   1.00
C410   C     0.02922   0.91298   0.27092   0.00000  Uiso   1.00
C411   C     0.02922   0.91298   0.32637   0.00000  Uiso   1.00
C412   C     0.89110   0.91301   0.18759   0.00000  Uiso   1.00
C413   C     0.97078   0.94220   0.24304   0.00000  Uiso   1.00
C414   C     0.92033   0.94221   0.27092   0.00000  Uiso   1.00
C415   C     0.92033   0.94221   0.32637   0.00000  Uiso   1.00
C416   C     0.92033   0.80412   0.18759   0.00000  Uiso   1.00
C417   C     0.89110   0.91301   0.24304   0.00000  Uiso   1.00
C418   C     0.89110   0.86256   0.27092   0.00000  Uiso   1.00
C419   C     0.89110   0.86256   0.32637   0.00000  Uiso   1.00
C420   C     0.02922   0.72447   0.18759   0.00000  Uiso   1.00
C421   C     0.92033   0.80412   0.24304   0.00000  Uiso   1.00
C422   C     0.97078   0.75369   0.27093   0.00000  Uiso   1.00
C423   C     0.97078   0.75369   0.32637   0.00000  Uiso   1.00
C424   C     0.10890   0.75366   0.18759   0.00000  Uiso   1.00
C425   C     0.02922   0.72447   0.24304   0.00000  Uiso   1.00
C426   C     0.07967   0.72445   0.27093   0.00000  Uiso   1.00
C427   C     0.07967   0.72446   0.32637   0.00000  Uiso   1.00
C428   C     0.07967   0.86255   0.18759   0.00000  Uiso   1.00
C429   C     0.10890   0.75366   0.24304   0.00000  Uiso   1.00
C430   C     0.10890   0.80411   0.27092   0.00000  Uiso   1.00
C431   C     0.10890   0.80410   0.32637   0.00000  Uiso   1.00
C432   C     0.07967   0.86255   0.24304   0.00000  Uiso   1.00
C433   C     0.97078   0.27553   0.35426   0.00000  Uiso   1.00
C434   C     0.02922   0.24631   0.43759   0.00000  Uiso   1.00
C435   C     0.02922   0.24631   0.49304   0.00000  Uiso   1.00
C436   C     0.89110   0.24634   0.35426   0.00000  Uiso   1.00
C437   C     0.97078   0.27553   0.40970   0.00000  Uiso   1.00
C438   C     0.92033   0.27555   0.43759   0.00000  Uiso   1.00
C439   C     0.92033   0.27554   0.49304   0.00000  Uiso   1.00
C440   C     0.92033   0.13745   0.35426   0.00000  Uiso   1.00
C441   C     0.89110   0.24634   0.40970   0.00000  Uiso   1.00
C442   C     0.89110   0.19590   0.43759   0.00000  Uiso   1.00
C443   C     0.89110   0.19590   0.49304   0.00000  Uiso   1.00
C444   C     0.02922   0.05780   0.35426   0.00000  Uiso   1.00
C445   C     0.92033   0.13745   0.40970   0.00000  Uiso   1.00
C446   C     0.97078   0.08702   0.43759   0.00000  Uiso   1.00
C447   C     0.97078   0.08702   0.49304   0.00000  Uiso   1.00
C448   C     0.10890   0.08699   0.35426   0.00000  Uiso   1.00
C449   C     0.02922   0.05780   0.40970   0.00000  Uiso   1.00
C450   C     0.07967   0.05779   0.43759   0.00000  Uiso   1.00
C451   C     0.07967   0.05779   0.49304   0.00000  Uiso   1.00
C452   C     0.07967   0.19588   0.35426   0.00000  Uiso   1.00
C453   C     0.10890   0.08699   0.40970   0.00000  Uiso   1.00
C454   C     0.10890   0.13744   0.43759   0.00000  Uiso   1.00
C455   C     0.10890   0.13744   0.49304   0.00000  Uiso   1.00
C456   C     0.07967   0.19588   0.40970   0.00000  Uiso   1.00
C457   C     0.30412   0.27553   0.35426   0.00000  Uiso   1.00
C458   C     0.36255   0.24631   0.43759   0.00000  Uiso   1.00
C459   C     0.36255   0.24631   0.49304   0.00000  Uiso   1.00
C460   C     0.22443   0.24634   0.35426   0.00000  Uiso   1.00
C461   C     0.30411   0.27553   0.40970   0.00000  Uiso   1.00
C462   C     0.25367   0.27554   0.43759   0.00000  Uiso   1.00
C463   C     0.25367   0.27554   0.49304   0.00000  Uiso   1.00
C464   C     0.25367   0.13746   0.35426   0.00000  Uiso   1.00
C465   C     0.22443   0.24634   0.40970   0.00000  Uiso   1.00
C466   C     0.22443   0.19590   0.43759   0.00000  Uiso   1.00
C467   C     0.22443   0.19590   0.49304   0.00000  Uiso   1.00
C468   C     0.36255   0.05780   0.35426   0.00000  Uiso   1.00
C469   C     0.25367   0.13745   0.40970   0.00000  Uiso   1.00
C470   C     0.30412   0.08702   0.43759   0.00000  Uiso   1.00
C471   C     0.30412   0.08702   0.49304   0.00000  Uiso   1.00
C472   C     0.44224   0.08699   0.35426   0.00000  Uiso   1.00
C473   C     0.36255   0.05780   0.40970   0.00000  Uiso   1.00
C474   C     0.41300   0.05779   0.43759   0.00000  Uiso   1.00
C475   C     0.41300   0.05779   0.49304   0.00000  Uiso   1.00
C476   C     0.41300   0.19588   0.35426   0.00000  Uiso   1.00
C477   C     0.44224   0.08699   0.40970   0.00000  Uiso   1.00
C478   C     0.44224   0.13744   0.43759   0.00000  Uiso   1.00
C479   C     0.44224   0.13744   0.49304   0.00000  Uiso   1.00
C480   C     0.41300   0.19588   0.40970   0.00000  Uiso   1.00
C481   C     0.63745   0.27553   0.35426   0.00000  Uiso   1.00
C482   C     0.69588   0.24631   0.43759   0.00000  Uiso   1.00
C483   C     0.69588   0.24631   0.49304   0.00000  Uiso   1.00
C484   C     0.55776   0.24634   0.35426   0.00000  Uiso   1.00
C485   C     0.63745   0.27553   0.40970   0.00000  Uiso   1.00
C486   C     0.58700   0.27554   0.43759   0.00000  Uiso   1.00
C487   C     0.58700   0.27554   0.49304   0.00000  Uiso   1.00
C488   C     0.58700   0.13746   0.35426   0.00000  Uiso   1.00
C489   C     0.55776   0.24634   0.40970   0.00000  Uiso   1.00
C490   C     0.55776   0.19590   0.43759   0.00000  Uiso   1.00
C491   C     0.55776   0.19590   0.49304   0.00000  Uiso   1.00
C492   C     0.69589   0.05780   0.35426   0.00000  Uiso   1.00
C493   C     0.58700   0.13745   0.40970   0.00000  Uiso   1.00
C494   C     0.63745   0.08702   0.43759   0.00000  Uiso   1.00
C495   C     0.63745   0.08702   0.49304   0.00000  Uiso   1.00
C496   C     0.77557   0.08699   0.35426   0.00000  Uiso   1.00
C497   C     0.69589   0.05780   0.40970   0.00000  Uiso   1.00
C498   C     0.74633   0.05779   0.43759   0.00000  Uiso   1.00
C499   C     0.74633   0.05779   0.49304   0.00000  Uiso   1.00
C500   C     0.74633   0.19588   0.35426   0.00000  Uiso   1.00
C501   C     0.77557   0.08699   0.40970   0.00000  Uiso   1.00
C502   C     0.77557   0.13744   0.43759   0.00000  Uiso   1.00
C503   C     0.77557   0.13744   0.49304   0.00000  Uiso   1.00
C504   C     0.74633   0.19588   0.40970   0.00000  Uiso   1.00
C505   C     0.63745   0.60886   0.35426   0.00000  Uiso   1.00
C506   C     0.69588   0.57964   0.43759   0.00000  Uiso   1.00
C507   C     0.69588   0.57965   0.49304   0.00000  Uiso   1.00
C508   C     0.55776   0.57968   0.35426   0.00000  Uiso   1.00
C509   C     0.63745   0.60886   0.40970   0.00000  Uiso   1.00
C510   C     0.58700   0.60888   0.43759   0.00000  Uiso   1.00
C511   C     0.58700   0.60888   0.49304   0.00000  Uiso   1.00
C512   C     0.58700   0.47079   0.35426   0.00000  Uiso   1.00
C513   C     0.55776   0.57967   0.40971   0.00000  Uiso   1.00
C514   C     0.55776   0.52923   0.43759   0.00000  Uiso   1.00
C515   C     0.55776   0.52923   0.49304   0.00000  Uiso   1.00
C516   C     0.69589   0.39114   0.35426   0.00000  Uiso   1.00
C517   C     0.58700   0.47079   0.40970   0.00000  Uiso   1.00
C518   C     0.63745   0.42036   0.43759   0.00000  Uiso   1.00
C519   C     0.63745   0.42036   0.49304   0.00000  Uiso   1.00
C520   C     0.77557   0.42032   0.35426   0.00000  Uiso   1.00
C521   C     0.69589   0.39114   0.40970   0.00000  Uiso   1.00
C522   C     0.74633   0.39112   0.43759   0.00000  Uiso   1.00
C523   C     0.74633   0.39112   0.49304   0.00000  Uiso   1.00
C524   C     0.74633   0.52921   0.35426   0.00000  Uiso   1.00
C525   C     0.77557   0.42032   0.40970   0.00000  Uiso   1.00
C526   C     0.77557   0.47077   0.43759   0.00000  Uiso   1.00
C527   C     0.77557   0.47077   0.49304   0.00000  Uiso   1.00
C528   C     0.74633   0.52921   0.40970   0.00000  Uiso   1.00
C529   C     0.97078   0.60886   0.35426   0.00000  Uiso   1.00
C530   C     0.02922   0.57964   0.43759   0.00000  Uiso   1.00
C531   C     0.02922   0.57965   0.49304   0.00000  Uiso   1.00
C532   C     0.89110   0.57968   0.35426   0.00000  Uiso   1.00
C533   C     0.97078   0.60886   0.40970   0.00000  Uiso   1.00
C534   C     0.92033   0.60888   0.43759   0.00000  Uiso   1.00
C535   C     0.92033   0.60888   0.49304   0.00000  Uiso   1.00
C536   C     0.92033   0.47079   0.35426   0.00000  Uiso   1.00
C537   C     0.89110   0.57967   0.40970   0.00000  Uiso   1.00
C538   C     0.89110   0.52923   0.43759   0.00000  Uiso   1.00
C539   C     0.89110   0.52923   0.49304   0.00000  Uiso   1.00
C540   C     0.02922   0.39114   0.35426   0.00000  Uiso   1.00
C541   C     0.92033   0.47079   0.40970   0.00000  Uiso   1.00
C542   C     0.97078   0.42036   0.43759   0.00000  Uiso   1.00
C543   C     0.97078   0.42035   0.49304   0.00000  Uiso   1.00
C544   C     0.10890   0.42033   0.35426   0.00000  Uiso   1.00
C545   C     0.02922   0.39114   0.40971   0.00000  Uiso   1.00
C546   C     0.07967   0.39112   0.43759   0.00000  Uiso   1.00
C547   C     0.07967   0.39112   0.49304   0.00000  Uiso   1.00
C548   C     0.07967   0.52921   0.35426   0.00000  Uiso   1.00
C549   C     0.10890   0.42033   0.40970   0.00000  Uiso   1.00
C550   C     0.10890   0.47077   0.43759   0.00000  Uiso   1.00
C551   C     0.10890   0.47077   0.49304   0.00000  Uiso   1.00
C552   C     0.07967   0.52921   0.40970   0.00000  Uiso   1.00
C553   C     0.30412   0.60886   0.35426   0.00000  Uiso   1.00
C554   C     0.36255   0.57965   0.43759   0.00000  Uiso   1.00
C555   C     0.36255   0.57965   0.49304   0.00000  Uiso   1.00
C556   C     0.22443   0.57967   0.35426   0.00000  Uiso   1.00
C557   C     0.30412   0.60886   0.40970   0.00000  Uiso   1.00
C558   C     0.25367   0.60888   0.43759   0.00000  Uiso   1.00
C559   C     0.25367   0.60888   0.49304   0.00000  Uiso   1.00
C560   C     0.25367   0.47079   0.35426   0.00000  Uiso   1.00
C561   C     0.22443   0.57967   0.40971   0.00000  Uiso   1.00
C562   C     0.22443   0.52923   0.43759   0.00000  Uiso   1.00
C563   C     0.22443   0.52923   0.49304   0.00000  Uiso   1.00
C564   C     0.36255   0.39114   0.35426   0.00000  Uiso   1.00
C565   C     0.25367   0.47079   0.40970   0.00000  Uiso   1.00
C566   C     0.30412   0.42035   0.43759   0.00000  Uiso   1.00
C567   C     0.30412   0.42035   0.49304   0.00000  Uiso   1.00
C568   C     0.44224   0.42032   0.35426   0.00000  Uiso   1.00
C569   C     0.36255   0.39114   0.40971   0.00000  Uiso   1.00
C570   C     0.41300   0.39112   0.43759   0.00000  Uiso   1.00
C571   C     0.41300   0.39112   0.49304   0.00000  Uiso   1.00
C572   C     0.41300   0.52921   0.35426   0.00000  Uiso   1.00
C573   C     0.44224   0.42033   0.40970   0.00000  Uiso   1.00
C574   C     0.44224   0.47077   0.43759   0.00000  Uiso   1.00
C575   C     0.44224   0.47077   0.49304   0.00000  Uiso   1.00
C576   C     0.41300   0.52921   0.40970   0.00000  Uiso   1.00
C577   C     0.30412   0.94220   0.35426   0.00000  Uiso   1.00
C578   C     0.36255   0.91298   0.43759   0.00000  Uiso   1.00
C579   C     0.36255   0.91298   0.49304   0.00000  Uiso   1.00
C580   C     0.22443   0.91301   0.35426   0.00000  Uiso   1.00
C581   C     0.30412   0.94219   0.40970   0.00000  Uiso   1.00
C582   C     0.25367   0.94221   0.43759   0.00000  Uiso   1.00
C583   C     0.25367   0.94221   0.49304   0.00000  Uiso   1.00
C584   C     0.25367   0.80412   0.35426   0.00000  Uiso   1.00
C585   C     0.22443   0.91301   0.40970   0.00000  Uiso   1.00
C586   C     0.22443   0.86256   0.43759   0.00000  Uiso   1.00
C587   C     0.22443   0.86256   0.49304   0.00000  Uiso   1.00
C588   C     0.36255   0.72447   0.35426   0.00000  Uiso   1.00
C589   C     0.25367   0.80412   0.40970   0.00000  Uiso   1.00
C590   C     0.30412   0.75369   0.43759   0.00000  Uiso   1.00
C591   C     0.30412   0.75369   0.49304   0.00000  Uiso   1.00
C592   C     0.44224   0.75366   0.35426   0.00000  Uiso   1.00
C593   C     0.36255   0.72447   0.40970   0.00000  Uiso   1.00
C594   C     0.41300   0.72446   0.43759   0.00000  Uiso   1.00
C595   C     0.41300   0.72445   0.49304   0.00000  Uiso   1.00
C596   C     0.41300   0.86255   0.35426   0.00000  Uiso   1.00
C597   C     0.44224   0.75366   0.40970   0.00000  Uiso   1.00
C598   C     0.44224   0.80410   0.43759   0.00000  Uiso   1.00
C599   C     0.44224   0.80410   0.49304   0.00000  Uiso   1.00
C600   C     0.41300   0.86254   0.40970   0.00000  Uiso   1.00
C601   C     0.63745   0.94220   0.35426   0.00000  Uiso   1.00
C602   C     0.69588   0.91298   0.43759   0.00000  Uiso   1.00
C603   C     0.69588   0.91298   0.49304   0.00000  Uiso   1.00
C604   C     0.55776   0.91301   0.35426   0.00000  Uiso   1.00
C605   C     0.63745   0.94219   0.40970   0.00000  Uiso   1.00
C606   C     0.58700   0.94221   0.43759   0.00000  Uiso   1.00
C607   C     0.58700   0.94221   0.49304   0.00000  Uiso   1.00
C608   C     0.58700   0.80412   0.35426   0.00000  Uiso   1.00
C609   C     0.55776   0.91301   0.40970   0.00000  Uiso   1.00
C610   C     0.55776   0.86256   0.43759   0.00000  Uiso   1.00
C611   C     0.55776   0.86256   0.49304   0.00000  Uiso   1.00
C612   C     0.69588   0.72447   0.35426   0.00000  Uiso   1.00
C613   C     0.58700   0.80412   0.40971   0.00000  Uiso   1.00
C614   C     0.63745   0.75369   0.43759   0.00000  Uiso   1.00
C615   C     0.63745   0.75369   0.49304   0.00000  Uiso   1.00
C616   C     0.77557   0.75366   0.35426   0.00000  Uiso   1.00
C617   C     0.69588   0.72447   0.40970   0.00000  Uiso   1.00
C618   C     0.74633   0.72445   0.43759   0.00000  Uiso   1.00
C619   C     0.74633   0.72446   0.49304   0.00000  Uiso   1.00
C620   C     0.74633   0.86255   0.35426   0.00000  Uiso   1.00
C621   C     0.77557   0.75366   0.40970   0.00000  Uiso   1.00
C622   C     0.77557   0.80410   0.43759   0.00000  Uiso   1.00
C623   C     0.77557   0.80410   0.49304   0.00000  Uiso   1.00
C624   C     0.74633   0.86254   0.40970   0.00000  Uiso   1.00
C625   C     0.97078   0.94220   0.35426   0.00000  Uiso   1.00
C626   C     0.02922   0.91298   0.43759   0.00000  Uiso   1.00
C627   C     0.02922   0.91298   0.49304   0.00000  Uiso   1.00
C628   C     0.89110   0.91301   0.35426   0.00000  Uiso   1.00
C629   C     0.97078   0.94220   0.40970   0.00000  Uiso   1.00
C630   C     0.92033   0.94221   0.43759   0.00000  Uiso   1.00
C631   C     0.92033   0.94221   0.49304   0.00000  Uiso   1.00
C632   C     0.92033   0.80412   0.35426   0.00000  Uiso   1.00
C633   C     0.89110   0.91301   0.40970   0.00000  Uiso   1.00
C634   C     0.89110   0.86256   0.43759   0.00000  Uiso   1.00
C635   C     0.89110   0.86256   0.49304   0.00000  Uiso   1.00
C636   C     0.02922   0.72447   0.35426   0.00000  Uiso   1.00
C637   C     0.92033   0.80412   0.40970   0.00000  Uiso   1.00
C638   C     0.97078   0.75369   0.43759   0.00000  Uiso   1.00
C639   C     0.97078   0.75369   0.49304   0.00000  Uiso   1.00
C640   C     0.10890   0.75366   0.35426   0.00000  Uiso   1.00
C641   C     0.02922   0.72447   0.40970   0.00000  Uiso   1.00
C642   C     0.07967   0.72445   0.43759   0.00000  Uiso   1.00
C643   C     0.07967   0.72446   0.49304   0.00000  Uiso   1.00
C644   C     0.07967   0.86255   0.35426   0.00000  Uiso   1.00
C645   C     0.10890   0.75366   0.40970   0.00000  Uiso   1.00
C646   C     0.10890   0.80410   0.43759   0.00000  Uiso   1.00
C647   C     0.10890   0.80410   0.49304   0.00000  Uiso   1.00
C648   C     0.07967   0.86255   0.40970   0.00000  Uiso   1.00
C649   C     0.97078   0.27553   0.52092   0.00000  Uiso   1.00
C650   C     0.02922   0.24631   0.60426   0.00000  Uiso   1.00
C651   C     0.02922   0.24631   0.65970   0.00000  Uiso   1.00
C652   C     0.89110   0.24634   0.52092   0.00000  Uiso   1.00
C653   C     0.97078   0.27553   0.57637   0.00000  Uiso   1.00
C654   C     0.92033   0.27554   0.60426   0.00000  Uiso   1.00
C655   C     0.92033   0.27554   0.65970   0.00000  Uiso   1.00
C656   C     0.92033   0.13745   0.52092   0.00000  Uiso   1.00
C657   C     0.89110   0.24634   0.57637   0.00000  Uiso   1.00
C658   C     0.89110   0.19590   0.60426   0.00000  Uiso   1.00
C659   C     0.89110   0.19590   0.65971   0.00000  Uiso   1.00
C660   C     0.02922   0.05780   0.52092   0.00000  Uiso   1.00
C661   C     0.92033   0.13745   0.57637   0.00000  Uiso   1.00
C662   C     0.97078   0.08702   0.60426   0.00000  Uiso   1.00
C663   C     0.97078   0.08702   0.65970   0.00000  Uiso   1.00
C664   C     0.10890   0.08699   0.52092   0.00000  Uiso   1.00
C665   C     0.02922   0.05780   0.57637   0.00000  Uiso   1.00
C666   C     0.07967   0.05779   0.60426   0.00000  Uiso   1.00
C667   C     0.07967   0.05779   0.65970   0.00000  Uiso   1.00
C668   C     0.07967   0.19588   0.52092   0.00000  Uiso   1.00
C669   C     0.10890   0.08699   0.57637   0.00000  Uiso   1.00
C670   C     0.10890   0.13744   0.60426   0.00000  Uiso   1.00
C671   C     0.10890   0.13744   0.65971   0.00000  Uiso   1.00
C672   C     0.07967   0.19588   0.57637   0.00000  Uiso   1.00
C673   C     0.30412   0.27553   0.52093   0.00000  Uiso   1.00
C674   C     0.36255   0.24631   0.60426   0.00000  Uiso   1.00
C675   C     0.36255   0.24631   0.65970   0.00000  Uiso   1.00
C676   C     0.22443   0.24634   0.52092   0.00000  Uiso   1.00
C677   C     0.30412   0.27553   0.57637   0.00000  Uiso   1.00
C678   C     0.25367   0.27554   0.60426   0.00000  Uiso   1.00
C679   C     0.25367   0.27555   0.65970   0.00000  Uiso   1.00
C680   C     0.25367   0.13745   0.52092   0.00000  Uiso   1.00
C681   C     0.22443   0.24634   0.57637   0.00000  Uiso   1.00
C682   C     0.22443   0.19590   0.60426   0.00000  Uiso   1.00
C683   C     0.22443   0.19590   0.65970   0.00000  Uiso   1.00
C684   C     0.36255   0.05780   0.52092   0.00000  Uiso   1.00
C685   C     0.25367   0.13745   0.57637   0.00000  Uiso   1.00
C686   C     0.30412   0.08702   0.60426   0.00000  Uiso   1.00
C687   C     0.30412   0.08702   0.65970   0.00000  Uiso   1.00
C688   C     0.44223   0.08699   0.52093   0.00000  Uiso   1.00
C689   C     0.36255   0.05780   0.57637   0.00000  Uiso   1.00
C690   C     0.41300   0.05779   0.60426   0.00000  Uiso   1.00
C691   C     0.41300   0.05779   0.65970   0.00000  Uiso   1.00
C692   C     0.41300   0.19588   0.52092   0.00000  Uiso   1.00
C693   C     0.44224   0.08699   0.57637   0.00000  Uiso   1.00
C694   C     0.44224   0.13744   0.60426   0.00000  Uiso   1.00
C695   C     0.44224   0.13744   0.65970   0.00000  Uiso   1.00
C696   C     0.41300   0.19588   0.57637   0.00000  Uiso   1.00
C697   C     0.63745   0.27553   0.52092   0.00000  Uiso   1.00
C698   C     0.69588   0.24631   0.60426   0.00000  Uiso   1.00
C699   C     0.69588   0.24631   0.65970   0.00000  Uiso   1.00
C700   C     0.55776   0.24634   0.52092   0.00000  Uiso   1.00
C701   C     0.63745   0.27553   0.57637   0.00000  Uiso   1.00
C702   C     0.58700   0.27554   0.60426   0.00000  Uiso   1.00
C703   C     0.58700   0.27554   0.65971   0.00000  Uiso   1.00
C704   C     0.58700   0.13745   0.52093   0.00000  Uiso   1.00
C705   C     0.55776   0.24634   0.57637   0.00000  Uiso   1.00
C706   C     0.55776   0.19590   0.60426   0.00000  Uiso   1.00
C707   C     0.55776   0.19590   0.65971   0.00000  Uiso   1.00
C708   C     0.69588   0.05780   0.52092   0.00000  Uiso   1.00
C709   C     0.58700   0.13745   0.57637   0.00000  Uiso   1.00
C710   C     0.63745   0.08702   0.60426   0.00000  Uiso   1.00
C711   C     0.63745   0.08702   0.65970   0.00000  Uiso   1.00
C712   C     0.77557   0.08699   0.52092   0.00000  Uiso   1.00
C713   C     0.69589   0.05780   0.57637   0.00000  Uiso   1.00
C714   C     0.74633   0.05779   0.60426   0.00000  Uiso   1.00
C715   C     0.74633   0.05779   0.65970   0.00000  Uiso   1.00
C716   C     0.74633   0.19588   0.52093   0.00000  Uiso   1.00
C717   C     0.77557   0.08699   0.57637   0.00000  Uiso   1.00
C718   C     0.77557   0.13744   0.60426   0.00000  Uiso   1.00
C719   C     0.77557   0.13744   0.65970   0.00000  Uiso   1.00
C720   C     0.74633   0.19588   0.57637   0.00000  Uiso   1.00
C721   C     0.63745   0.60886   0.52093   0.00000  Uiso   1.00
C722   C     0.69588   0.57965   0.60426   0.00000  Uiso   1.00
C723   C     0.69588   0.57965   0.65970   0.00000  Uiso   1.00
C724   C     0.55776   0.57968   0.52092   0.00000  Uiso   1.00
C725   C     0.63745   0.60886   0.57637   0.00000  Uiso   1.00
C726   C     0.58700   0.60888   0.60426   0.00000  Uiso   1.00
C727   C     0.58700   0.60888   0.65970   0.00000  Uiso   1.00
C728   C     0.58700   0.47079   0.52092   0.00000  Uiso   1.00
C729   C     0.55776   0.57968   0.57637   0.00000  Uiso   1.00
C730   C     0.55776   0.52923   0.60426   0.00000  Uiso   1.00
C731   C     0.55776   0.52923   0.65970   0.00000  Uiso   1.00
C732   C     0.69589   0.39114   0.52093   0.00000  Uiso   1.00
C733   C     0.58700   0.47079   0.57637   0.00000  Uiso   1.00
C734   C     0.63745   0.42035   0.60426   0.00000  Uiso   1.00
C735   C     0.63745   0.42036   0.65971   0.00000  Uiso   1.00
C736   C     0.77557   0.42032   0.52093   0.00000  Uiso   1.00
C737   C     0.69589   0.39114   0.57637   0.00000  Uiso   1.00
C738   C     0.74633   0.39112   0.60426   0.00000  Uiso   1.00
C739   C     0.74633   0.39112   0.65970   0.00000  Uiso   1.00
C740   C     0.74633   0.52921   0.52093   0.00000  Uiso   1.00
C741   C     0.77557   0.42033   0.57637   0.00000  Uiso   1.00
C742   C     0.77557   0.47077   0.60426   0.00000  Uiso   1.00
C743   C     0.77557   0.47077   0.65970   0.00000  Uiso   1.00
C744   C     0.74633   0.52921   0.57637   0.00000  Uiso   1.00
C745   C     0.97078   0.60886   0.52093   0.00000  Uiso   1.00
C746   C     0.02921   0.57965   0.60426   0.00000  Uiso   1.00
C747   C     0.02922   0.57965   0.65971   0.00000  Uiso   1.00
C748   C     0.89110   0.57968   0.52092   0.00000  Uiso   1.00
C749   C     0.97078   0.60886   0.57637   0.00000  Uiso   1.00
C750   C     0.92033   0.60888   0.60426   0.00000  Uiso   1.00
C751   C     0.92033   0.60888   0.65970   0.00000  Uiso   1.00
C752   C     0.92033   0.47079   0.52093   0.00000  Uiso   1.00
C753   C     0.89110   0.57967   0.57637   0.00000  Uiso   1.00
C754   C     0.89110   0.52923   0.60426   0.00000  Uiso   1.00
C755   C     0.89110   0.52923   0.65970   0.00000  Uiso   1.00
C756   C     0.02922   0.39114   0.52093   0.00000  Uiso   1.00
C757   C     0.92033   0.47079   0.57637   0.00000  Uiso   1.00
C758   C     0.97078   0.42035   0.60426   0.00000  Uiso   1.00
C759   C     0.97078   0.42035   0.65970   0.00000  Uiso   1.00
C760   C     0.10890   0.42033   0.52092   0.00000  Uiso   1.00
C761   C     0.02922   0.39114   0.57637   0.00000  Uiso   1.00
C762   C     0.07967   0.39112   0.60426   0.00000  Uiso   1.00
C763   C     0.07966   0.39112   0.65970   0.00000  Uiso   1.00
C764   C     0.07967   0.52921   0.52093   0.00000  Uiso   1.00
C765   C     0.10890   0.42033   0.57637   0.00000  Uiso   1.00
C766   C     0.10890   0.47077   0.60426   0.00000  Uiso   1.00
C767   C     0.10890   0.47077   0.65970   0.00000  Uiso   1.00
C768   C     0.07967   0.52921   0.57637   0.00000  Uiso   1.00
C769   C     0.30411   0.60886   0.52092   0.00000  Uiso   1.00
C770   C     0.36255   0.57965   0.60426   0.00000  Uiso   1.00
C771   C     0.36255   0.57965   0.65970   0.00000  Uiso   1.00
C772   C     0.22443   0.57968   0.52093   0.00000  Uiso   1.00
C773   C     0.30412   0.60886   0.57637   0.00000  Uiso   1.00
C774   C     0.25366   0.60888   0.60426   0.00000  Uiso   1.00
C775   C     0.25367   0.60888   0.65971   0.00000  Uiso   1.00
C776   C     0.25367   0.47079   0.52093   0.00000  Uiso   1.00
C777   C     0.22443   0.57967   0.57637   0.00000  Uiso   1.00
C778   C     0.22443   0.52923   0.60426   0.00000  Uiso   1.00
C779   C     0.22443   0.52923   0.65970   0.00000  Uiso   1.00
C780   C     0.36255   0.39114   0.52093   0.00000  Uiso   1.00
C781   C     0.25367   0.47079   0.57637   0.00000  Uiso   1.00
C782   C     0.30412   0.42035   0.60426   0.00000  Uiso   1.00
C783   C     0.30412   0.42035   0.65970   0.00000  Uiso   1.00
C784   C     0.44224   0.42032   0.52092   0.00000  Uiso   1.00
C785   C     0.36255   0.39114   0.57637   0.00000  Uiso   1.00
C786   C     0.41300   0.39112   0.60426   0.00000  Uiso   1.00
C787   C     0.41300   0.39112   0.65971   0.00000  Uiso   1.00
C788   C     0.41300   0.52921   0.52092   0.00000  Uiso   1.00
C789   C     0.44224   0.42033   0.57637   0.00000  Uiso   1.00
C790   C     0.44224   0.47077   0.60426   0.00000  Uiso   1.00
C791   C     0.44224   0.47077   0.65970   0.00000  Uiso   1.00
C792   C     0.41300   0.52921   0.57637   0.00000  Uiso   1.00
C793   C     0.30411   0.94220   0.52093   0.00000  Uiso   1.00
C794   C     0.36255   0.91298   0.60426   0.00000  Uiso   1.00
C795   C     0.36255   0.91298   0.65970   0.00000  Uiso   1.00
C796   C     0.22443   0.91301   0.52092   0.00000  Uiso   1.00
C797   C     0.30412   0.94219   0.57637   0.00000  Uiso   1.00
C798   C     0.25367   0.94221   0.60426   0.00000  Uiso   1.00
C799   C     0.25367   0.94221   0.65970   0.00000  Uiso   1.00
C800   C     0.25367   0.80412   0.52093   0.00000  Uiso   1.00
C801   C     0.22443   0.91301   0.57637   0.00000  Uiso   1.00
C802   C     0.22443   0.86256   0.60426   0.00000  Uiso   1.00
C803   C     0.22443   0.86256   0.65970   0.00000  Uiso   1.00
C804   C     0.36255   0.72447   0.52093   0.00000  Uiso   1.00
C805   C     0.25367   0.80412   0.57637   0.00000  Uiso   1.00
C806   C     0.30412   0.75369   0.60426   0.00000  Uiso   1.00
C807   C     0.30412   0.75369   0.65970   0.00000  Uiso   1.00
C808   C     0.44224   0.75366   0.52092   0.00000  Uiso   1.00
C809   C     0.36255   0.72447   0.57637   0.00000  Uiso   1.00
C810   C     0.41300   0.72446   0.60426   0.00000  Uiso   1.00
C811   C     0.41300   0.72446   0.65970   0.00000  Uiso   1.00
C812   C     0.41300   0.86254   0.52093   0.00000  Uiso   1.00
C813   C     0.44224   0.75366   0.57637   0.00000  Uiso   1.00
C814   C     0.44224   0.80410   0.60426   0.00000  Uiso   1.00
C815   C     0.44224   0.80411   0.65970   0.00000  Uiso   1.00
C816   C     0.41300   0.86255   0.57637   0.00000  Uiso   1.00
C817   C     0.63745   0.94220   0.52092   0.00000  Uiso   1.00
C818   C     0.69588   0.91298   0.60426   0.00000  Uiso   1.00
C819   C     0.69588   0.91298   0.65970   0.00000  Uiso   1.00
C820   C     0.55776   0.91301   0.52092   0.00000  Uiso   1.00
C821   C     0.63745   0.94220   0.57637   0.00000  Uiso   1.00
C822   C     0.58700   0.94221   0.60426   0.00000  Uiso   1.00
C823   C     0.58700   0.94221   0.65971   0.00000  Uiso   1.00
C824   C     0.58700   0.80412   0.52093   0.00000  Uiso   1.00
C825   C     0.55776   0.91301   0.57637   0.00000  Uiso   1.00
C826   C     0.55776   0.86256   0.60426   0.00000  Uiso   1.00
C827   C     0.55776   0.86256   0.65970   0.00000  Uiso   1.00
C828   C     0.69589   0.72447   0.52093   0.00000  Uiso   1.00
C829   C     0.58700   0.80412   0.57637   0.00000  Uiso   1.00
C830   C     0.63745   0.75369   0.60426   0.00000  Uiso   1.00
C831   C     0.63745   0.75369   0.65970   0.00000  Uiso   1.00
C832   C     0.77557   0.75366   0.52092   0.00000  Uiso   1.00
C833   C     0.69589   0.72447   0.57637   0.00000  Uiso   1.00
C834   C     0.74633   0.72446   0.60426   0.00000  Uiso   1.00
C835   C     0.74633   0.72445   0.65971   0.00000  Uiso   1.00
C836   C     0.74633   0.86255   0.52093   0.00000  Uiso   1.00
C837   C     0.77557   0.75366   0.57637   0.00000  Uiso   1.00
C838   C     0.77557   0.80410   0.60426   0.00000  Uiso   1.00
C839   C     0.77557   0.80410   0.65970   0.00000  Uiso   1.00
C840   C     0.74633   0.86254   0.57637   0.00000  Uiso   1.00
C841   C     0.97078   0.94220   0.52092   0.00000  Uiso   1.00
C842   C     0.02922   0.91298   0.60426   0.00000  Uiso   1.00
C843   C     0.02922   0.91298   0.65970   0.00000  Uiso   1.00
C844   C     0.89110   0.91301   0.52092   0.00000  Uiso   1.00
C845   C     0.97078   0.94220   0.57637   0.00000  Uiso   1.00
C846   C     0.92033   0.94221   0.60426   0.00000  Uiso   1.00
C847   C     0.92033   0.94221   0.65970   0.00000  Uiso   1.00
C848   C     0.92033   0.80412   0.52092   0.00000  Uiso   1.00
C849   C     0.89110   0.91301   0.57637   0.00000  Uiso   1.00
C850   C     0.89110   0.86256   0.60426   0.00000  Uiso   1.00
C851   C     0.89110   0.86256   0.65970   0.00000  Uiso   1.00
C852   C     0.02922   0.72447   0.52092   0.00000  Uiso   1.00
C853   C     0.92033   0.80412   0.57637   0.00000  Uiso   1.00
C854   C     0.97078   0.75369   0.60426   0.00000  Uiso   1.00
C855   C     0.97078   0.75369   0.65971   0.00000  Uiso   1.00
C856   C     0.10890   0.75366   0.52092   0.00000  Uiso   1.00
C857   C     0.02922   0.72447   0.57637   0.00000  Uiso   1.00
C858   C     0.07967   0.72446   0.60426   0.00000  Uiso   1.00
C859   C     0.07967   0.72446   0.65971   0.00000  Uiso   1.00
C860   C     0.07967   0.86254   0.52092   0.00000  Uiso   1.00
C861   C     0.10890   0.75366   0.57637   0.00000  Uiso   1.00
C862   C     0.10890   0.80410   0.60426   0.00000  Uiso   1.00
C863   C     0.10890   0.80410   0.65971   0.00000  Uiso   1.00
C864   C     0.07967   0.86254   0.57637   0.00000  Uiso   1.00
C865   C     0.97078   0.27553   0.68759   0.00000  Uiso   1.00
C866   C     0.02922   0.24631   0.77092   0.00000  Uiso   1.00
C867   C     0.02922   0.24631   0.82637   0.00000  Uiso   1.00
C868   C     0.89110   0.24634   0.68759   0.00000  Uiso   1.00
C869   C     0.97078   0.27553   0.74304   0.00000  Uiso   1.00
C870   C     0.92033   0.27554   0.77092   0.00000  Uiso   1.00
C871   C     0.92033   0.27554   0.82637   0.00000  Uiso   1.00
C872   C     0.92033   0.13746   0.68759   0.00000  Uiso   1.00
C873   C     0.89110   0.24634   0.74304   0.00000  Uiso   1.00
C874   C     0.89110   0.19590   0.77092   0.00000  Uiso   1.00
C875   C     0.89110   0.19590   0.82637   0.00000  Uiso   1.00
C876   C     0.02922   0.05780   0.68759   0.00000  Uiso   1.00
C877   C     0.92033   0.13745   0.74304   0.00000  Uiso   1.00
C878   C     0.97078   0.08702   0.77092   0.00000  Uiso   1.00
C879   C     0.97078   0.08702   0.82637   0.00000  Uiso   1.00
C880   C     0.10890   0.08699   0.68759   0.00000  Uiso   1.00
C881   C     0.02922   0.05780   0.74304   0.00000  Uiso   1.00
C882   C     0.07967   0.05779   0.77092   0.00000  Uiso   1.00
C883   C     0.07967   0.05779   0.82637   0.00000  Uiso   1.00
C884   C     0.07967   0.19588   0.68759   0.00000  Uiso   1.00
C885   C     0.10890   0.08699   0.74304   0.00000  Uiso   1.00
C886   C     0.10890   0.13744   0.77092   0.00000  Uiso   1.00
C887   C     0.10890   0.13744   0.82637   0.00000  Uiso   1.00
C888   C     0.07967   0.19588   0.74304   0.00000  Uiso   1.00
C889   C     0.30411   0.27553   0.68759   0.00000  Uiso   1.00
C890   C     0.36255   0.24631   0.77092   0.00000  Uiso   1.00
C891   C     0.36255   0.24631   0.82637   0.00000  Uiso   1.00
C892   C     0.22443   0.24634   0.68759   0.00000  Uiso   1.00
C893   C     0.30412   0.27553   0.74304   0.00000  Uiso   1.00
C894   C     0.25367   0.27554   0.77092   0.00000  Uiso   1.00
C895   C     0.25367   0.27555   0.82637   0.00000  Uiso   1.00
C896   C     0.25367   0.13745   0.68759   0.00000  Uiso   1.00
C897   C     0.22443   0.24634   0.74304   0.00000  Uiso   1.00
C898   C     0.22443   0.19590   0.77093   0.00000  Uiso   1.00
C899   C     0.22443   0.19590   0.82637   0.00000  Uiso   1.00
C900   C     0.36255   0.05780   0.68759   0.00000  Uiso   1.00
C901   C     0.25367   0.13745   0.74304   0.00000  Uiso   1.00
C902   C     0.30412   0.08702   0.77092   0.00000  Uiso   1.00
C903   C     0.30412   0.08702   0.82637   0.00000  Uiso   1.00
C904   C     0.44224   0.08699   0.68759   0.00000  Uiso   1.00
C905   C     0.36255   0.05780   0.74304   0.00000  Uiso   1.00
C906   C     0.41300   0.05779   0.77092   0.00000  Uiso   1.00
C907   C     0.41300   0.05779   0.82637   0.00000  Uiso   1.00
C908   C     0.41300   0.19588   0.68759   0.00000  Uiso   1.00
C909   C     0.44223   0.08699   0.74304   0.00000  Uiso   1.00
C910   C     0.44224   0.13744   0.77092   0.00000  Uiso   1.00
C911   C     0.44224   0.13744   0.82637   0.00000  Uiso   1.00
C912   C     0.41300   0.19588   0.74304   0.00000  Uiso   1.00
C913   C     0.63745   0.27553   0.68759   0.00000  Uiso   1.00
C914   C     0.69588   0.24631   0.77092   0.00000  Uiso   1.00
C915   C     0.69588   0.24631   0.82637   0.00000  Uiso   1.00
C916   C     0.55776   0.24634   0.68759   0.00000  Uiso   1.00
C917   C     0.63745   0.27553   0.74304   0.00000  Uiso   1.00
C918   C     0.58700   0.27554   0.77092   0.00000  Uiso   1.00
C919   C     0.58700   0.27554   0.82637   0.00000  Uiso   1.00
C920   C     0.58700   0.13745   0.68759   0.00000  Uiso   1.00
C921   C     0.55776   0.24634   0.74304   0.00000  Uiso   1.00
C922   C     0.55776   0.19590   0.77092   0.00000  Uiso   1.00
C923   C     0.55776   0.19590   0.82637   0.00000  Uiso   1.00
C924   C     0.69588   0.05780   0.68759   0.00000  Uiso   1.00
C925   C     0.58700   0.13745   0.74304   0.00000  Uiso   1.00
C926   C     0.63745   0.08702   0.77092   0.00000  Uiso   1.00
C927   C     0.63745   0.08702   0.82637   0.00000  Uiso   1.00
C928   C     0.77557   0.08699   0.68759   0.00000  Uiso   1.00
C929   C     0.69589   0.05780   0.74304   0.00000  Uiso   1.00
C930   C     0.74633   0.05779   0.77092   0.00000  Uiso   1.00
C931   C     0.74633   0.05779   0.82637   0.00000  Uiso   1.00
C932   C     0.74633   0.19588   0.68759   0.00000  Uiso   1.00
C933   C     0.77557   0.08699   0.74304   0.00000  Uiso   1.00
C934   C     0.77557   0.13744   0.77092   0.00000  Uiso   1.00
C935   C     0.77557   0.13744   0.82637   0.00000  Uiso   1.00
C936   C     0.74633   0.19588   0.74304   0.00000  Uiso   1.00
C937   C     0.63745   0.60886   0.68759   0.00000  Uiso   1.00
C938   C     0.69588   0.57965   0.77092   0.00000  Uiso   1.00
C939   C     0.69588   0.57965   0.82637   0.00000  Uiso   1.00
C940   C     0.55776   0.57967   0.68759   0.00000  Uiso   1.00
C941   C     0.63745   0.60886   0.74304   0.00000  Uiso   1.00
C942   C     0.58700   0.60888   0.77093   0.00000  Uiso   1.00
C943   C     0.58700   0.60888   0.82637   0.00000  Uiso   1.00
C944   C     0.58700   0.47079   0.68759   0.00000  Uiso   1.00
C945   C     0.55776   0.57968   0.74304   0.00000  Uiso   1.00
C946   C     0.55776   0.52923   0.77093   0.00000  Uiso   1.00
C947   C     0.55776   0.52923   0.82637   0.00000  Uiso   1.00
C948   C     0.69589   0.39114   0.68759   0.00000  Uiso   1.00
C949   C     0.58700   0.47079   0.74304   0.00000  Uiso   1.00
C950   C     0.63745   0.42035   0.77093   0.00000  Uiso   1.00
C951   C     0.63745   0.42036   0.82637   0.00000  Uiso   1.00
C952   C     0.77557   0.42033   0.68759   0.00000  Uiso   1.00
C953   C     0.69589   0.39114   0.74304   0.00000  Uiso   1.00
C954   C     0.74633   0.39112   0.77092   0.00000  Uiso   1.00
C955   C     0.74633   0.39112   0.82637   0.00000  Uiso   1.00
C956   C     0.74633   0.52921   0.68759   0.00000  Uiso   1.00
C957   C     0.77557   0.42033   0.74304   0.00000  Uiso   1.00
C958   C     0.77557   0.47077   0.77092   0.00000  Uiso   1.00
C959   C     0.77557   0.47077   0.82637   0.00000  Uiso   1.00
C960   C     0.74633   0.52921   0.74304   0.00000  Uiso   1.00
C961   C     0.97078   0.60886   0.68759   0.00000  Uiso   1.00
C962   C     0.02922   0.57965   0.77092   0.00000  Uiso   1.00
C963   C     0.02922   0.57965   0.82637   0.00000  Uiso   1.00
C964   C     0.89110   0.57967   0.68759   0.00000  Uiso   1.00
C965   C     0.97078   0.60886   0.74304   0.00000  Uiso   1.00
C966   C     0.92033   0.60888   0.77092   0.00000  Uiso   1.00
C967   C     0.92033   0.60888   0.82637   0.00000  Uiso   1.00
C968   C     0.92033   0.47079   0.68759   0.00000  Uiso   1.00
C969   C     0.89110   0.57967   0.74304   0.00000  Uiso   1.00
C970   C     0.89110   0.52923   0.77093   0.00000  Uiso   1.00
C971   C     0.89110   0.52923   0.82637   0.00000  Uiso   1.00
C972   C     0.02922   0.39114   0.68759   0.00000  Uiso   1.00
C973   C     0.92033   0.47079   0.74304   0.00000  Uiso   1.00
C974   C     0.97078   0.42035   0.77092   0.00000  Uiso   1.00
C975   C     0.97078   0.42036   0.82637   0.00000  Uiso   1.00
C976   C     0.10890   0.42033   0.68759   0.00000  Uiso   1.00
C977   C     0.02922   0.39114   0.74304   0.00000  Uiso   1.00
C978   C     0.07967   0.39112   0.77092   0.00000  Uiso   1.00
C979   C     0.07967   0.39112   0.82637   0.00000  Uiso   1.00
C980   C     0.07967   0.52921   0.68759   0.00000  Uiso   1.00
C981   C     0.10890   0.42033   0.74304   0.00000  Uiso   1.00
C982   C     0.10890   0.47077   0.77092   0.00000  Uiso   1.00
C983   C     0.10890   0.47077   0.82637   0.00000  Uiso   1.00
C984   C     0.07967   0.52921   0.74304   0.00000  Uiso   1.00
C985   C     0.30412   0.60886   0.68759   0.00000  Uiso   1.00
C986   C     0.36255   0.57965   0.77092   0.00000  Uiso   1.00
C987   C     0.36255   0.57965   0.82637   0.00000  Uiso   1.00
C988   C     0.22443   0.57967   0.68759   0.00000  Uiso   1.00
C989   C     0.30412   0.60886   0.74304   0.00000  Uiso   1.00
C990   C     0.25367   0.60888   0.77092   0.00000  Uiso   1.00
C991   C     0.25367   0.60888   0.82637   0.00000  Uiso   1.00
C992   C     0.25367   0.47079   0.68759   0.00000  Uiso   1.00
C993   C     0.22443   0.57968   0.74304   0.00000  Uiso   1.00
C994   C     0.22443   0.52923   0.77093   0.00000  Uiso   1.00
C995   C     0.22443   0.52923   0.82637   0.00000  Uiso   1.00
C996   C     0.36255   0.39114   0.68759   0.00000  Uiso   1.00
C997   C     0.25367   0.47079   0.74304   0.00000  Uiso   1.00
C998   C     0.30412   0.42035   0.77092   0.00000  Uiso   1.00
C999   C     0.30412   0.42035   0.82637   0.00000  Uiso   1.00
C1000  C     0.44224   0.42032   0.68759   0.00000  Uiso   1.00
C1001  C     0.36255   0.39114   0.74304   0.00000  Uiso   1.00
C1002  C     0.41300   0.39112   0.77092   0.00000  Uiso   1.00
C1003  C     0.41300   0.39112   0.82637   0.00000  Uiso   1.00
C1004  C     0.41300   0.52921   0.68759   0.00000  Uiso   1.00
C1005  C     0.44224   0.42033   0.74304   0.00000  Uiso   1.00
C1006  C     0.44224   0.47077   0.77093   0.00000  Uiso   1.00
C1007  C     0.44224   0.47077   0.82637   0.00000  Uiso   1.00
C1008  C     0.41300   0.52921   0.74304   0.00000  Uiso   1.00
C1009  C     0.30412   0.94220   0.68759   0.00000  Uiso   1.00
C1010  C     0.36255   0.91298   0.77092   0.00000  Uiso   1.00
C1011  C     0.36255   0.91298   0.82637   0.00000  Uiso   1.00
C1012  C     0.22443   0.91301   0.68759   0.00000  Uiso   1.00
C1013  C     0.30412   0.94219   0.74304   0.00000  Uiso   1.00
C1014  C     0.25367   0.94221   0.77092   0.00000  Uiso   1.00
C1015  C     0.25367   0.94221   0.82637   0.00000  Uiso   1.00
C1016  C     0.25367   0.80412   0.68759   0.00000  Uiso   1.00
C1017  C     0.22443   0.91301   0.74304   0.00000  Uiso   1.00
C1018  C     0.22443   0.86256   0.77092   0.00000  Uiso   1.00
C1019  C     0.22443   0.86256   0.82637   0.00000  Uiso   1.00
C1020  C     0.36255   0.72447   0.68759   0.00000  Uiso   1.00
C1021  C     0.25367   0.80412   0.74304   0.00000  Uiso   1.00
C1022  C     0.30412   0.75369   0.77092   0.00000  Uiso   1.00
C1023  C     0.30412   0.75369   0.82637   0.00000  Uiso   1.00
C1024  C     0.44224   0.75366   0.68759   0.00000  Uiso   1.00
C1025  C     0.36255   0.72447   0.74304   0.00000  Uiso   1.00
C1026  C     0.41300   0.72446   0.77092   0.00000  Uiso   1.00
C1027  C     0.41300   0.72445   0.82637   0.00000  Uiso   1.00
C1028  C     0.41300   0.86254   0.68759   0.00000  Uiso   1.00
C1029  C     0.44224   0.75366   0.74304   0.00000  Uiso   1.00
C1030  C     0.44224   0.80411   0.77092   0.00000  Uiso   1.00
C1031  C     0.44224   0.80410   0.82637   0.00000  Uiso   1.00
C1032  C     0.41300   0.86255   0.74304   0.00000  Uiso   1.00
C1033  C     0.63745   0.94220   0.68759   0.00000  Uiso   1.00
C1034  C     0.69588   0.91298   0.77092   0.00000  Uiso   1.00
C1035  C     0.69588   0.91298   0.82637   0.00000  Uiso   1.00
C1036  C     0.55776   0.91301   0.68759   0.00000  Uiso   1.00
C1037  C     0.63745   0.94220   0.74304   0.00000  Uiso   1.00
C1038  C     0.58700   0.94221   0.77093   0.00000  Uiso   1.00
C1039  C     0.58700   0.94221   0.82637   0.00000  Uiso   1.00
C1040  C     0.58700   0.80412   0.68759   0.00000  Uiso   1.00
C1041  C     0.55776   0.91301   0.74304   0.00000  Uiso   1.00
C1042  C     0.55776   0.86256   0.77092   0.00000  Uiso   1.00
C1043  C     0.55776   0.86256   0.82637   0.00000  Uiso   1.00
C1044  C     0.69589   0.72447   0.68759   0.00000  Uiso   1.00
C1045  C     0.58700   0.80412   0.74304   0.00000  Uiso   1.00
C1046  C     0.63745   0.75369   0.77092   0.00000  Uiso   1.00
C1047  C     0.63745   0.75369   0.82637   0.00000  Uiso   1.00
C1048  C     0.77557   0.75366   0.68759   0.00000  Uiso   1.00
C1049  C     0.69589   0.72447   0.74304   0.00000  Uiso   1.00
C1050  C     0.74633   0.72446   0.77092   0.00000  Uiso   1.00
C1051  C     0.74633   0.72445   0.82637   0.00000  Uiso   1.00
C1052  C     0.74633   0.86254   0.68759   0.00000  Uiso   1.00
C1053  C     0.77557   0.75366   0.74304   0.00000  Uiso   1.00
C1054  C     0.77557   0.80410   0.77092   0.00000  Uiso   1.00
C1055  C     0.77557   0.80410   0.82637   0.00000  Uiso   1.00
C1056  C     0.74633   0.86254   0.74304   0.00000  Uiso   1.00
C1057  C     0.97078   0.94219   0.68759   0.00000  Uiso   1.00
C1058  C     0.02922   0.91298   0.77092   0.00000  Uiso   1.00
C1059  C     0.02922   0.91298   0.82637   0.00000  Uiso   1.00
C1060  C     0.89110   0.91301   0.68759   0.00000  Uiso   1.00
C1061  C     0.97078   0.94220   0.74304   0.00000  Uiso   1.00
C1062  C     0.92033   0.94221   0.77092   0.00000  Uiso   1.00
C1063  C     0.92033   0.94221   0.82637   0.00000  Uiso   1.00
C1064  C     0.92034   0.80412   0.68759   0.00000  Uiso   1.00
C1065  C     0.89110   0.91301   0.74304   0.00000  Uiso   1.00
C1066  C     0.89110   0.86256   0.77092   0.00000  Uiso   1.00
C1067  C     0.89110   0.86256   0.82637   0.00000  Uiso   1.00
C1068  C     0.02922   0.72447   0.68759   0.00000  Uiso   1.00
C1069  C     0.92033   0.80412   0.74304   0.00000  Uiso   1.00
C1070  C     0.97078   0.75369   0.77093   0.00000  Uiso   1.00
C1071  C     0.97078   0.75369   0.82637   0.00000  Uiso   1.00
C1072  C     0.10890   0.75366   0.68759   0.00000  Uiso   1.00
C1073  C     0.02922   0.72447   0.74304   0.00000  Uiso   1.00
C1074  C     0.07967   0.72446   0.77092   0.00000  Uiso   1.00
C1075  C     0.07967   0.72446   0.82637   0.00000  Uiso   1.00
C1076  C     0.07967   0.86254   0.68759   0.00000  Uiso   1.00
C1077  C     0.10890   0.75366   0.74304   0.00000  Uiso   1.00
C1078  C     0.10890   0.80410   0.77092   0.00000  Uiso   1.00
C1079  C     0.10890   0.80411   0.82637   0.00000  Uiso   1.00
C1080  C     0.07967   0.86255   0.74304   0.00000  Uiso   1.00
C1081  C     0.97078   0.27553   0.85426   0.00000  Uiso   1.00
C1082  C     0.02922   0.24631   0.93759   0.00000  Uiso   1.00
C1083  C     0.02922   0.24631   0.99304   0.00000  Uiso   1.00
C1084  C     0.89110   0.24634   0.85426   0.00000  Uiso   1.00
C1085  C     0.97078   0.27553   0.90970   0.00000  Uiso   1.00
C1086  C     0.92033   0.27554   0.93759   0.00000  Uiso   1.00
C1087  C     0.92033   0.27555   0.99304   0.00000  Uiso   1.00
C1088  C     0.92033   0.13745   0.85426   0.00000  Uiso   1.00
C1089  C     0.89110   0.24634   0.90970   0.00000  Uiso   1.00
C1090  C     0.89110   0.19590   0.93759   0.00000  Uiso   1.00
C1091  C     0.89110   0.19590   0.99304   0.00000  Uiso   1.00
C1092  C     0.02922   0.05780   0.85426   0.00000  Uiso   1.00
C1093  C     0.92033   0.13745   0.90970   0.00000  Uiso   1.00
C1094  C     0.97078   0.08702   0.93759   0.00000  Uiso   1.00
C1095  C     0.97078   0.08702   0.99304   0.00000  Uiso   1.00
C1096  C     0.10890   0.08699   0.85426   0.00000  Uiso   1.00
C1097  C     0.02922   0.05780   0.90970   0.00000  Uiso   1.00
C1098  C     0.07967   0.05779   0.93759   0.00000  Uiso   1.00
C1099  C     0.07967   0.05779   0.99304   0.00000  Uiso   1.00
C1100  C     0.07967   0.19588   0.85426   0.00000  Uiso   1.00
C1101  C     0.10890   0.08699   0.90970   0.00000  Uiso   1.00
C1102  C     0.10890   0.13744   0.93759   0.00000  Uiso   1.00
C1103  C     0.10890   0.13744   0.99304   0.00000  Uiso   1.00
C1104  C     0.07967   0.19588   0.90970   0.00000  Uiso   1.00
C1105  C     0.30412   0.27553   0.85426   0.00000  Uiso   1.00
C1106  C     0.36255   0.24631   0.93759   0.00000  Uiso   1.00
C1107  C     0.36255   0.24631   0.99304   0.00000  Uiso   1.00
C1108  C     0.22443   0.24634   0.85426   0.00000  Uiso   1.00
C1109  C     0.30412   0.27553   0.90970   0.00000  Uiso   1.00
C1110  C     0.25367   0.27554   0.93759   0.00000  Uiso   1.00
C1111  C     0.25367   0.27554   0.99304   0.00000  Uiso   1.00
C1112  C     0.25367   0.13745   0.85426   0.00000  Uiso   1.00
C1113  C     0.22443   0.24634   0.90970   0.00000  Uiso   1.00
C1114  C     0.22443   0.19590   0.93759   0.00000  Uiso   1.00
C1115  C     0.22443   0.19590   0.99304   0.00000  Uiso   1.00
C1116  C     0.36255   0.05780   0.85426   0.00000  Uiso   1.00
C1117  C     0.25367   0.13745   0.90970   0.00000  Uiso   1.00
C1118  C     0.30412   0.08702   0.93759   0.00000  Uiso   1.00
C1119  C     0.30412   0.08702   0.99304   0.00000  Uiso   1.00
C1120  C     0.44224   0.08699   0.85426   0.00000  Uiso   1.00
C1121  C     0.36255   0.05780   0.90970   0.00000  Uiso   1.00
C1122  C     0.41300   0.05779   0.93759   0.00000  Uiso   1.00
C1123  C     0.41300   0.05779   0.99304   0.00000  Uiso   1.00
C1124  C     0.41300   0.19588   0.85426   0.00000  Uiso   1.00
C1125  C     0.44224   0.08699   0.90971   0.00000  Uiso   1.00
C1126  C     0.44224   0.13744   0.93759   0.00000  Uiso   1.00
C1127  C     0.44224   0.13744   0.99304   0.00000  Uiso   1.00
C1128  C     0.41300   0.19588   0.90970   0.00000  Uiso   1.00
C1129  C     0.63745   0.27553   0.85426   0.00000  Uiso   1.00
C1130  C     0.69588   0.24631   0.93759   0.00000  Uiso   1.00
C1131  C     0.69588   0.24631   0.99304   0.00000  Uiso   1.00
C1132  C     0.55776   0.24634   0.85426   0.00000  Uiso   1.00
C1133  C     0.63745   0.27553   0.90970   0.00000  Uiso   1.00
C1134  C     0.58700   0.27554   0.93759   0.00000  Uiso   1.00
C1135  C     0.58700   0.27555   0.99304   0.00000  Uiso   1.00
C1136  C     0.58700   0.13745   0.85426   0.00000  Uiso   1.00
C1137  C     0.55776   0.24634   0.90970   0.00000  Uiso   1.00
C1138  C     0.55776   0.19590   0.93759   0.00000  Uiso   1.00
C1139  C     0.55776   0.19590   0.99304   0.00000  Uiso   1.00
C1140  C     0.69588   0.05780   0.85426   0.00000  Uiso   1.00
C1141  C     0.58700   0.13745   0.90970   0.00000  Uiso   1.00
C1142  C     0.63745   0.08702   0.93759   0.00000  Uiso   1.00
C1143  C     0.63745   0.08702   0.99304   0.00000  Uiso   1.00
C1144  C     0.77557   0.08699   0.85426   0.00000  Uiso   1.00
C1145  C     0.69588   0.05780   0.90970   0.00000  Uiso   1.00
C1146  C     0.74633   0.05779   0.93759   0.00000  Uiso   1.00
C1147  C     0.74633   0.05779   0.99304   0.00000  Uiso   1.00
C1148  C     0.74633   0.19588   0.85426   0.00000  Uiso   1.00
C1149  C     0.77557   0.08699   0.90970   0.00000  Uiso   1.00
C1150  C     0.77557   0.13744   0.93759   0.00000  Uiso   1.00
C1151  C     0.77557   0.13744   0.99304   0.00000  Uiso   1.00
C1152  C     0.74633   0.19588   0.90970   0.00000  Uiso   1.00
C1153  C     0.63745   0.60886   0.85426   0.00000  Uiso   1.00
C1154  C     0.69588   0.57964   0.93759   0.00000  Uiso   1.00
C1155  C     0.69588   0.57965   0.99304   0.00000  Uiso   1.00
C1156  C     0.55776   0.57968   0.85426   0.00000  Uiso   1.00
C1157  C     0.63745   0.60886   0.90970   0.00000  Uiso   1.00
C1158  C     0.58700   0.60888   0.93759   0.00000  Uiso   1.00
C1159  C     0.58700   0.60888   0.99304   0.00000  Uiso   1.00
C1160  C     0.58700   0.47079   0.85426   0.00000  Uiso   1.00
C1161  C     0.55776   0.57968   0.90970   0.00000  Uiso   1.00
C1162  C     0.55776   0.52923   0.93759   0.00000  Uiso   1.00
C1163  C     0.55776   0.52923   0.99304   0.00000  Uiso   1.00
C1164  C     0.69589   0.39114   0.85426   0.00000  Uiso   1.00
C1165  C     0.58700   0.47079   0.90970   0.00000  Uiso   1.00
C1166  C     0.63745   0.42035   0.93759   0.00000  Uiso   1.00
C1167  C     0.63745   0.42036   0.99304   0.00000  Uiso   1.00
C1168  C     0.77557   0.42032   0.85426   0.00000  Uiso   1.00
C1169  C     0.69589   0.39114   0.90970   0.00000  Uiso   1.00
C1170  C     0.74633   0.39112   0.93759   0.00000  Uiso   1.00
C1171  C     0.74633   0.39112   0.99304   0.00000  Uiso   1.00
C1172  C     0.74633   0.52921   0.85426   0.00000  Uiso   1.00
C1173  C     0.77557   0.42032   0.90971   0.00000  Uiso   1.00
C1174  C     0.77557   0.47077   0.93759   0.00000  Uiso   1.00
C1175  C     0.77557   0.47077   0.99304   0.00000  Uiso   1.00
C1176  C     0.74633   0.52921   0.90970   0.00000  Uiso   1.00
C1177  C     0.97078   0.60886   0.85426   0.00000  Uiso   1.00
C1178  C     0.02922   0.57965   0.93759   0.00000  Uiso   1.00
C1179  C     0.02922   0.57965   0.99304   0.00000  Uiso   1.00
C1180  C     0.89110   0.57967   0.85426   0.00000  Uiso   1.00
C1181  C     0.97078   0.60886   0.90970   0.00000  Uiso   1.00
C1182  C     0.92033   0.60888   0.93759   0.00000  Uiso   1.00
C1183  C     0.92033   0.60888   0.99304   0.00000  Uiso   1.00
C1184  C     0.92033   0.47079   0.85426   0.00000  Uiso   1.00
C1185  C     0.89110   0.57968   0.90970   0.00000  Uiso   1.00
C1186  C     0.89110   0.52923   0.93759   0.00000  Uiso   1.00
C1187  C     0.89110   0.52923   0.99304   0.00000  Uiso   1.00
C1188  C     0.02922   0.39114   0.85426   0.00000  Uiso   1.00
C1189  C     0.92033   0.47079   0.90971   0.00000  Uiso   1.00
C1190  C     0.97078   0.42036   0.93759   0.00000  Uiso   1.00
C1191  C     0.97078   0.42036   0.99304   0.00000  Uiso   1.00
C1192  C     0.10890   0.42033   0.85426   0.00000  Uiso   1.00
C1193  C     0.02922   0.39114   0.90970   0.00000  Uiso   1.00
C1194  C     0.07967   0.39112   0.93759   0.00000  Uiso   1.00
C1195  C     0.07967   0.39112   0.99304   0.00000  Uiso   1.00
C1196  C     0.07967   0.52921   0.85426   0.00000  Uiso   1.00
C1197  C     0.10890   0.42033   0.90970   0.00000  Uiso   1.00
C1198  C     0.10890   0.47077   0.93759   0.00000  Uiso   1.00
C1199  C     0.10890   0.47077   0.99304   0.00000  Uiso   1.00
C1200  C     0.07967   0.52921   0.90970   0.00000  Uiso   1.00
C1201  C     0.30411   0.60886   0.85426   0.00000  Uiso   1.00
C1202  C     0.36255   0.57965   0.93759   0.00000  Uiso   1.00
C1203  C     0.36255   0.57965   0.99304   0.00000  Uiso   1.00
C1204  C     0.22443   0.57967   0.85426   0.00000  Uiso   1.00
C1205  C     0.30412   0.60886   0.90970   0.00000  Uiso   1.00
C1206  C     0.25367   0.60888   0.93759   0.00000  Uiso   1.00
C1207  C     0.25367   0.60888   0.99304   0.00000  Uiso   1.00
C1208  C     0.25367   0.47079   0.85426   0.00000  Uiso   1.00
C1209  C     0.22443   0.57968   0.90970   0.00000  Uiso   1.00
C1210  C     0.22443   0.52923   0.93759   0.00000  Uiso   1.00
C1211  C     0.22443   0.52923   0.99304   0.00000  Uiso   1.00
C1212  C     0.36255   0.39114   0.85426   0.00000  Uiso   1.00
C1213  C     0.25367   0.47079   0.90970   0.00000  Uiso   1.00
C1214  C     0.30412   0.42035   0.93759   0.00000  Uiso   1.00
C1215  C     0.30412   0.42035   0.99304   0.00000  Uiso   1.00
C1216  C     0.44223   0.42033   0.85426   0.00000  Uiso   1.00
C1217  C     0.36255   0.39114   0.90970   0.00000  Uiso   1.00
C1218  C     0.41300   0.39112   0.93759   0.00000  Uiso   1.00
C1219  C     0.41300   0.39112   0.99304   0.00000  Uiso   1.00
C1220  C     0.41300   0.52921   0.85426   0.00000  Uiso   1.00
C1221  C     0.44224   0.42033   0.90970   0.00000  Uiso   1.00
C1222  C     0.44224   0.47077   0.93759   0.00000  Uiso   1.00
C1223  C     0.44224   0.47077   0.99304   0.00000  Uiso   1.00
C1224  C     0.41300   0.52921   0.90970   0.00000  Uiso   1.00
C1225  C     0.30411   0.94220   0.85426   0.00000  Uiso   1.00
C1226  C     0.36255   0.91298   0.93759   0.00000  Uiso   1.00
C1227  C     0.36255   0.91298   0.99304   0.00000  Uiso   1.00
C1228  C     0.22443   0.91301   0.85426   0.00000  Uiso   1.00
C1229  C     0.30412   0.94220   0.90970   0.00000  Uiso   1.00
C1230  C     0.25367   0.94221   0.93759   0.00000  Uiso   1.00
C1231  C     0.25367   0.94221   0.99304   0.00000  Uiso   1.00
C1232  C     0.25367   0.80412   0.85426   0.00000  Uiso   1.00
C1233  C     0.22443   0.91301   0.90970   0.00000  Uiso   1.00
C1234  C     0.22443   0.86256   0.93759   0.00000  Uiso   1.00
C1235  C     0.22443   0.86256   0.99303   0.00000  Uiso   1.00
C1236  C     0.36255   0.72447   0.85426   0.00000  Uiso   1.00
C1237  C     0.25367   0.80412   0.90971   0.00000  Uiso   1.00
C1238  C     0.30412   0.75369   0.93759   0.00000  Uiso   1.00
C1239  C     0.30412   0.75369   0.99304   0.00000  Uiso   1.00
C1240  C     0.44224   0.75366   0.85426   0.00000  Uiso   1.00
C1241  C     0.36255   0.72447   0.90970   0.00000  Uiso   1.00
C1242  C     0.41300   0.72445   0.93759   0.00000  Uiso   1.00
C1243  C     0.41300   0.72446   0.99304   0.00000  Uiso   1.00
C1244  C     0.41300   0.86255   0.85426   0.00000  Uiso   1.00
C1245  C     0.44224   0.75366   0.90970   0.00000  Uiso   1.00
C1246  C     0.44224   0.80410   0.93759   0.00000  Uiso   1.00
C1247  C     0.44224   0.80410   0.99304   0.00000  Uiso   1.00
C1248  C     0.41300   0.86255   0.90970   0.00000  Uiso   1.00
C1249  C     0.63745   0.94220   0.85426   0.00000  Uiso   1.00
C1250  C     0.69588   0.91298   0.93759   0.00000  Uiso   1.00
C1251  C     0.69588   0.91298   0.99304   0.00000  Uiso   1.00
C1252  C     0.55777   0.91301   0.85426   0.00000  Uiso   1.00
C1253  C     0.63745   0.94220   0.90970   0.00000  Uiso   1.00
C1254  C     0.58700   0.94221   0.93759   0.00000  Uiso   1.00
C1255  C     0.58700   0.94221   0.99304   0.00000  Uiso   1.00
C1256  C     0.58700   0.80412   0.85426   0.00000  Uiso   1.00
C1257  C     0.55776   0.91301   0.90970   0.00000  Uiso   1.00
C1258  C     0.55776   0.86256   0.93759   0.00000  Uiso   1.00
C1259  C     0.55776   0.86256   0.99304   0.00000  Uiso   1.00
C1260  C     0.69589   0.72447   0.85426   0.00000  Uiso   1.00
C1261  C     0.58700   0.80412   0.90970   0.00000  Uiso   1.00
C1262  C     0.63745   0.75369   0.93759   0.00000  Uiso   1.00
C1263  C     0.63745   0.75369   0.99304   0.00000  Uiso   1.00
C1264  C     0.77557   0.75366   0.85426   0.00000  Uiso   1.00
C1265  C     0.69588   0.72447   0.90970   0.00000  Uiso   1.00
C1266  C     0.74633   0.72445   0.93759   0.00000  Uiso   1.00
C1267  C     0.74633   0.72446   0.99304   0.00000  Uiso   1.00
C1268  C     0.74633   0.86254   0.85426   0.00000  Uiso   1.00
C1269  C     0.77557   0.75366   0.90970   0.00000  Uiso   1.00
C1270  C     0.77557   0.80410   0.93759   0.00000  Uiso   1.00
C1271  C     0.77557   0.80410   0.99304   0.00000  Uiso   1.00
C1272  C     0.74633   0.86254   0.90970   0.00000  Uiso   1.00
C1273  C     0.97078   0.94220   0.85426   0.00000  Uiso   1.00
C1274  C     0.02922   0.91298   0.93759   0.00000  Uiso   1.00
C1275  C     0.02922   0.91298   0.99304   0.00000  Uiso   1.00
C1276  C     0.89110   0.91301   0.85426   0.00000  Uiso   1.00
C1277  C     0.97078   0.94220   0.90970   0.00000  Uiso   1.00
C1278  C     0.92033   0.94221   0.93759   0.00000  Uiso   1.00
C1279  C     0.92033   0.94221   0.99304   0.00000  Uiso   1.00
C1280  C     0.92033   0.80412   0.85426   0.00000  Uiso   1.00
C1281  C     0.89110   0.91301   0.90971   0.00000  Uiso   1.00
C1282  C     0.89110   0.86256   0.93759   0.00000  Uiso   1.00
C1283  C     0.89110   0.86256   0.99304   0.00000  Uiso   1.00
C1284  C     0.02922   0.72447   0.85426   0.00000  Uiso   1.00
C1285  C     0.92033   0.80412   0.90970   0.00000  Uiso   1.00
C1286  C     0.97078   0.75369   0.93759   0.00000  Uiso   1.00
C1287  C     0.97079   0.75369   0.99304   0.00000  Uiso   1.00
C1288  C     0.10890   0.75366   0.85426   0.00000  Uiso   1.00
C1289  C     0.02922   0.72447   0.90970   0.00000  Uiso   1.00
C1290  C     0.07967   0.72446   0.93759   0.00000  Uiso   1.00
C1291  C     0.07967   0.72445   0.99304   0.00000  Uiso   1.00
C1292  C     0.07967   0.86254   0.85426   0.00000  Uiso   1.00
C1293  C     0.10890   0.75366   0.90971   0.00000  Uiso   1.00
C1294  C     0.10890   0.80410   0.93759   0.00000  Uiso   1.00
C1295  C     0.10890   0.80410   0.99304   0.00000  Uiso   1.00
C1296  C     0.07967   0.86255   0.90970   0.00000  Uiso   1.00
loop_
_geom_bond_atom_site_label_1
_geom_bond_atom_site_label_2
_geom_bond_distance
_geom_bond_site_symmetry_2
_ccdc_geom_bond_type
C1     C5      1.410   .     S
C2     C24     1.457   .     S
C2     C3      1.410   .     S
C3     C236    1.457   .     S
C4     C9      1.410   .     S
C5     C6      1.457   .     S
C6     C9      1.461   .     S
C6     C7      1.410   .     S
C7     C217    1.457   .     S
C7     C220    1.461   .     S
C8     C13     1.410   .     S
C9     C10     1.457   .     S
C10    C13     1.461   .     S
C10    C11     1.410   .     S
C11    C220    1.457   .     S
C11    C224    1.461   .     S
C12    C17     1.410   .     S
C13    C14     1.457   .     S
C14    C15     1.410   .     S
C15    C224    1.457   .     S
C16    C21     1.410   .     S
C17    C18     1.457   .     S
C18    C21     1.461   .     S
C18    C19     1.410   .     S
C19    C228    1.457   .     S
C19    C232    1.461   .     S
C20    C24     1.410   .     S
C21    C22     1.457   .     S
C22    C24     1.461   .     S
C22    C23     1.410   .     S
C23    C232    1.458   .     S
C23    C236    1.461   .     S
C25    C29     1.410   .     S
C26    C29     1.461   .     S
C26    C48     1.457   .     S
C26    C27     1.410   .     S
C27    C241    1.461   .     S
C27    C260    1.457   .     S
C28    C33     1.410   .     S
C29    C30     1.457   .     S
C30    C33     1.461   .     S
C30    C31     1.410   .     S
C31    C244    1.461   .     S
C31    C241    1.457   .     S
C32    C37     1.410   .     S
C33    C34     1.457   .     S
C34    C37     1.461   .     S
C34    C35     1.410   .     S
C35    C244    1.457   .     S
C35    C248    1.461   .     S
C36    C41     1.410   .     S
C37    C38     1.457   .     S
C38    C41     1.461   .     S
C38    C39     1.410   .     S
C39    C248    1.457   .     S
C39    C252    1.461   .     S
C40    C45     1.410   .     S
C41    C42     1.457   .     S
C42    C45     1.461   .     S
C42    C43     1.410   .     S
C43    C252    1.457   .     S
C43    C256    1.461   .     S
C44    C48     1.410   .     S
C45    C46     1.457   .     S
C46    C48     1.461   .     S
C46    C47     1.410   .     S
C47    C256    1.457   .     S
C47    C260    1.461   .     S
C49    C53     1.410   .     S
C50    C53     1.461   .     S
C50    C72     1.457   .     S
C50    C51     1.410   .     S
C51    C265    1.461   .     S
C51    C284    1.457   .     S
C52    C57     1.410   .     S
C53    C54     1.457   .     S
C54    C57     1.461   .     S
C54    C55     1.410   .     S
C55    C268    1.461   .     S
C55    C265    1.457   .     S
C56    C61     1.410   .     S
C57    C58     1.457   .     S
C58    C61     1.461   .     S
C58    C59     1.410   .     S
C59    C268    1.457   .     S
C59    C272    1.461   .     S
C60    C65     1.410   .     S
C61    C62     1.457   .     S
C62    C65     1.461   .     S
C62    C63     1.410   .     S
C63    C272    1.457   .     S
C63    C276    1.461   .     S
C64    C69     1.410   .     S
C65    C66     1.457   .     S
C66    C69     1.461   .     S
C66    C67     1.410   .     S
C67    C276    1.457   .     S
C67    C280    1.461   .     S
C68    C72     1.410   .     S
C69    C70     1.457   .     S
C70    C72     1.461   .     S
C70    C71     1.410   .     S
C71    C280    1.457   .     S
C71    C284    1.461   .     S
C73    C77     1.410   .     S
C74    C77     1.461   .     S
C74    C96     1.457   .     S
C74    C75     1.410   .     S
C75    C289    1.461   .     S
C75    C308    1.457   .     S
C76    C81     1.410   .     S
C77    C78     1.457   .     S
C78    C81     1.461   .     S
C78    C79     1.410   .     S
C79    C292    1.461   .     S
C79    C289    1.457   .     S
C80    C85     1.410   .     S
C81    C82     1.457   .     S
C82    C85     1.461   .     S
C82    C83     1.410   .     S
C83    C292    1.457   .     S
C83    C296    1.461   .     S
C84    C89     1.410   .     S
C85    C86     1.457   .     S
C86    C89     1.461   .     S
C86    C87     1.410   .     S
C87    C296    1.457   .     S
C87    C300    1.461   .     S
C88    C93     1.410   .     S
C89    C90     1.457   .     S
C90    C93     1.461   .     S
C90    C91     1.410   .     S
C91    C300    1.457   .     S
C91    C304    1.461   .     S
C92    C96     1.410   .     S
C93    C94     1.457   .     S
C94    C96     1.461   .     S
C94    C95     1.410   .     S
C95    C304    1.457   .     S
C95    C308    1.461   .     S
C97    C101    1.410   .     S
C98    C120    1.457   .     S
C98    C99     1.410   .     S
C99    C332    1.457   .     S
C100   C105    1.410   .     S
C101   C102    1.457   .     S
C102   C105    1.461   .     S
C102   C103    1.410   .     S
C103   C316    1.461   .     S
C103   C313    1.457   .     S
C104   C109    1.410   .     S
C105   C106    1.457   .     S
C106   C109    1.461   .     S
C106   C107    1.410   .     S
C107   C316    1.457   .     S
C107   C320    1.461   .     S
C108   C113    1.410   .     S
C109   C110    1.457   .     S
C110   C111    1.410   .     S
C111   C320    1.457   .     S
C112   C117    1.410   .     S
C113   C114    1.457   .     S
C114   C117    1.461   .     S
C114   C115    1.410   .     S
C115   C324    1.457   .     S
C115   C328    1.461   .     S
C116   C120    1.410   .     S
C117   C118    1.457   .     S
C118   C120    1.461   .     S
C118   C119    1.410   .     S
C119   C328    1.457   .     S
C119   C332    1.461   .     S
C121   C125    1.410   .     S
C122   C125    1.461   .     S
C122   C144    1.457   .     S
C122   C123    1.410   .     S
C123   C337    1.461   .     S
C123   C356    1.457   .     S
C124   C129    1.410   .     S
C125   C126    1.457   .     S
C126   C129    1.461   .     S
C126   C127    1.410   .     S
C127   C340    1.461   .     S
C127   C337    1.457   .     S
C128   C133    1.410   .     S
C129   C130    1.457   .     S
C130   C133    1.461   .     S
C130   C131    1.410   .     S
C131   C340    1.457   .     S
C131   C344    1.461   .     S
C132   C137    1.410   .     S
C133   C134    1.457   .     S
C134   C137    1.461   .     S
C134   C135    1.410   .     S
C135   C344    1.457   .     S
C135   C348    1.461   .     S
C136   C141    1.410   .     S
C137   C138    1.457   .     S
C138   C141    1.461   .     S
C138   C139    1.410   .     S
C139   C348    1.457   .     S
C139   C352    1.461   .     S
C140   C144    1.410   .     S
C141   C142    1.457   .     S
C142   C144    1.461   .     S
C142   C143    1.410   .     S
C143   C352    1.457   .     S
C143   C356    1.461   .     S
C145   C149    1.410   .     S
C146   C149    1.461   .     S
C146   C168    1.457   .     S
C146   C147    1.410   .     S
C147   C361    1.461   .     S
C147   C380    1.457   .     S
C148   C153    1.410   .     S
C149   C150    1.457   .     S
C150   C153    1.461   .     S
C150   C151    1.410   .     S
C151   C364    1.461   .     S
C151   C361    1.457   .     S
C152   C157    1.410   .     S
C153   C154    1.457   .     S
C154   C157    1.461   .     S
C154   C155    1.410   .     S
C155   C364    1.457   .     S
C155   C368    1.461   .     S
C156   C161    1.410   .     S
C157   C158    1.457   .     S
C158   C161    1.461   .     S
C158   C159    1.410   .     S
C159   C368    1.457   .     S
C159   C372    1.461   .     S
C160   C165    1.410   .     S
C161   C162    1.457   .     S
C162   C165    1.461   .     S
C162   C163    1.410   .     S
C163   C372    1.457   .     S
C163   C376    1.461   .     S
C164   C168    1.410   .     S
C165   C166    1.457   .     S
C166   C168    1.461   .     S
C166   C167    1.410   .     S
C167   C376    1.457   .     S
C167   C380    1.461   .     S
C169   C173    1.410   .     S
C170   C173    1.461   .     S
C170   C192    1.457   .     S
C170   C171    1.410   .     S
C171   C385    1.461   .     S
C171   C404    1.457   .     S
C172   C177    1.410   .     S
C173   C174    1.457   .     S
C174   C177    1.461   .     S
C174   C175    1.410   .     S
C175   C385    1.457   .     S
C175   C388    1.461   .     S
C176   C181    1.410   .     S
C177   C178    1.457   .     S
C178   C181    1.461   .     S
C178   C179    1.410   .     S
C179   C388    1.457   .     S
C179   C392    1.461   .     S
C180   C185    1.410   .     S
C181   C182    1.457   .     S
C182   C185    1.461   .     S
C182   C183    1.410   .     S
C183   C392    1.457   .     S
C183   C396    1.461   .     S
C184   C189    1.410   .     S
C185   C186    1.457   .     S
C186   C189    1.461   .     S
C186   C187    1.410   .     S
C187   C396    1.457   .     S
C187   C400    1.461   .     S
C188   C192    1.410   .     S
C189   C190    1.457   .     S
C190   C192    1.461   .     S
C190   C191    1.410   .     S
C191   C400    1.457   .     S
C191   C404    1.461   .     S
C193   C197    1.410   .     S
C194   C216    1.457   .     S
C194   C195    1.410   .     S
C195   C428    1.457   .     S
C196   C201    1.410   .     S
C197   C198    1.457   .     S
C198   C201    1.461   .     S
C198   C199    1.410   .     S
C199   C412    1.461   .     S
C199   C409    1.457   .     S
C200   C205    1.410   .     S
C201   C202    1.457   .     S
C202   C205    1.461   .     S
C202   C203    1.410   .     S
C203   C412    1.457   .     S
C203   C416    1.461   .     S
C204   C209    1.410   .     S
C205   C206    1.457   .     S
C206   C207    1.410   .     S
C207   C416    1.457   .     S
C208   C213    1.410   .     S
C209   C210    1.457   .     S
C210   C213    1.461   .     S
C210   C211    1.410   .     S
C211   C420    1.457   .     S
C211   C424    1.461   .     S
C212   C216    1.410   .     S
C213   C214    1.457   .     S
C214   C216    1.461   .     S
C214   C215    1.410   .     S
C215   C424    1.457   .     S
C215   C428    1.461   .     S
C217   C221    1.410   .     S
C218   C240    1.457   .     S
C218   C219    1.410   .     S
C219   C452    1.457   .     S
C220   C225    1.410   .     S
C221   C222    1.457   .     S
C222   C225    1.461   .     S
C222   C223    1.410   .     S
C223   C433    1.457   .     S
C223   C436    1.461   .     S
C224   C229    1.410   .     S
C225   C226    1.457   .     S
C226   C229    1.461   .     S
C226   C227    1.410   .     S
C227   C436    1.457   .     S
C227   C440    1.461   .     S
C228   C233    1.410   .     S
C229   C230    1.457   .     S
C230   C231    1.410   .     S
C231   C440    1.457   .     S
C232   C237    1.410   .     S
C233   C234    1.457   .     S
C234   C237    1.461   .     S
C234   C235    1.410   .     S
C235   C448    1.461   .     S
C235   C444    1.457   .     S
C236   C240    1.410   .     S
C237   C238    1.457   .     S
C238   C240    1.461   .     S
C238   C239    1.410   .     S
C239   C452    1.461   .     S
C239   C448    1.457   .     S
C241   C245    1.410   .     S
C242   C245    1.461   .     S
C242   C264    1.457   .     S
C242   C243    1.410   .     S
C243   C457    1.461   .     S
C243   C476    1.457   .     S
C244   C249    1.410   .     S
C245   C246    1.457   .     S
C246   C249    1.461   .     S
C246   C247    1.410   .     S
C247   C460    1.461   .     S
C247   C457    1.457   .     S
C248   C253    1.410   .     S
C249   C250    1.457   .     S
C250   C253    1.461   .     S
C250   C251    1.410   .     S
C251   C460    1.457   .     S
C251   C464    1.461   .     S
C252   C257    1.410   .     S
C253   C254    1.457   .     S
C254   C257    1.461   .     S
C254   C255    1.410   .     S
C255   C464    1.457   .     S
C255   C468    1.461   .     S
C256   C261    1.410   .     S
C257   C258    1.457   .     S
C258   C261    1.461   .     S
C258   C259    1.410   .     S
C259   C472    1.461   .     S
C259   C468    1.457   .     S
C260   C264    1.410   .     S
C261   C262    1.457   .     S
C262   C264    1.461   .     S
C262   C263    1.410   .     S
C263   C476    1.461   .     S
C263   C472    1.457   .     S
C265   C269    1.410   .     S
C266   C269    1.461   .     S
C266   C288    1.457   .     S
C266   C267    1.410   .     S
C267   C481    1.461   .     S
C267   C500    1.457   .     S
C268   C273    1.410   .     S
C269   C270    1.457   .     S
C270   C273    1.461   .     S
C270   C271    1.410   .     S
C271   C484    1.461   .     S
C271   C481    1.457   .     S
C272   C277    1.410   .     S
C273   C274    1.457   .     S
C274   C277    1.461   .     S
C274   C275    1.410   .     S
C275   C484    1.457   .     S
C275   C488    1.461   .     S
C276   C281    1.410   .     S
C277   C278    1.457   .     S
C278   C281    1.461   .     S
C278   C279    1.410   .     S
C279   C488    1.457   .     S
C279   C492    1.461   .     S
C280   C285    1.410   .     S
C281   C282    1.457   .     S
C282   C285    1.461   .     S
C282   C283    1.410   .     S
C283   C496    1.461   .     S
C283   C492    1.457   .     S
C284   C288    1.410   .     S
C285   C286    1.457   .     S
C286   C288    1.461   .     S
C286   C287    1.410   .     S
C287   C500    1.461   .     S
C287   C496    1.457   .     S
C289   C293    1.410   .     S
C290   C293    1.461   .     S
C290   C312    1.457   .     S
C290   C291    1.410   .     S
C291   C505    1.461   .     S
C291   C524    1.457   .     S
C292   C297    1.410   .     S
C293   C294    1.457   .     S
C294   C297    1.461   .     S
C294   C295    1.410   .     S
C295   C508    1.461   .     S
C295   C505    1.457   .     S
C296   C301    1.410   .     S
C297   C298    1.458   .     S
C298   C301    1.461   .     S
C298   C299    1.410   .     S
C299   C508    1.457   .     S
C299   C512    1.461   .     S
C300   C305    1.410   .     S
C301   C302    1.457   .     S
C302   C305    1.461   .     S
C302   C303    1.410   .     S
C303   C512    1.457   .     S
C303   C516    1.461   .     S
C304   C309    1.410   .     S
C305   C306    1.457   .     S
C306   C309    1.461   .     S
C306   C307    1.410   .     S
C307   C520    1.461   .     S
C307   C516    1.457   .     S
C308   C312    1.410   .     S
C309   C310    1.457   .     S
C310   C312    1.461   .     S
C310   C311    1.410   .     S
C311   C524    1.461   .     S
C311   C520    1.457   .     S
C313   C317    1.410   .     S
C314   C336    1.457   .     S
C314   C315    1.410   .     S
C315   C548    1.457   .     S
C316   C321    1.410   .     S
C317   C318    1.457   .     S
C318   C321    1.461   .     S
C318   C319    1.410   .     S
C319   C532    1.461   .     S
C319   C529    1.457   .     S
C320   C325    1.410   .     S
C321   C322    1.457   .     S
C322   C325    1.461   .     S
C322   C323    1.410   .     S
C323   C532    1.457   .     S
C323   C536    1.461   .     S
C324   C329    1.410   .     S
C325   C326    1.457   .     S
C326   C327    1.410   .     S
C327   C536    1.457   .     S
C328   C333    1.410   .     S
C329   C330    1.457   .     S
C330   C333    1.461   .     S
C330   C331    1.410   .     S
C331   C544    1.461   .     S
C331   C540    1.457   .     S
C332   C336    1.410   .     S
C333   C334    1.457   .     S
C334   C336    1.461   .     S
C334   C335    1.410   .     S
C335   C548    1.461   .     S
C335   C544    1.457   .     S
C337   C341    1.410   .     S
C338   C341    1.461   .     S
C338   C360    1.457   .     S
C338   C339    1.410   .     S
C339   C553    1.461   .     S
C339   C572    1.457   .     S
C340   C345    1.410   .     S
C341   C342    1.457   .     S
C342   C345    1.461   .     S
C342   C343    1.410   .     S
C343   C556    1.461   .     S
C343   C553    1.457   .     S
C344   C349    1.410   .     S
C345   C346    1.457   .     S
C346   C349    1.461   .     S
C346   C347    1.410   .     S
C347   C556    1.457   .     S
C347   C560    1.461   .     S
C348   C353    1.410   .     S
C349   C350    1.457   .     S
C350   C353    1.461   .     S
C350   C351    1.410   .     S
C351   C560    1.457   .     S
C351   C564    1.461   .     S
C352   C357    1.410   .     S
C353   C354    1.457   .     S
C354   C357    1.461   .     S
C354   C355    1.410   .     S
C355   C568    1.461   .     S
C355   C564    1.457   .     S
C356   C360    1.410   .     S
C357   C358    1.457   .     S
C358   C360    1.461   .     S
C358   C359    1.410   .     S
C359   C572    1.461   .     S
C359   C568    1.457   .     S
C361   C365    1.410   .     S
C362   C365    1.461   .     S
C362   C384    1.457   .     S
C362   C363    1.410   .     S
C363   C577    1.461   .     S
C363   C596    1.457   .     S
C364   C369    1.410   .     S
C365   C366    1.457   .     S
C366   C369    1.461   .     S
C366   C367    1.410   .     S
C367   C580    1.461   .     S
C367   C577    1.457   .     S
C368   C373    1.410   .     S
C369   C370    1.457   .     S
C370   C373    1.461   .     S
C370   C371    1.410   .     S
C371   C580    1.457   .     S
C371   C584    1.461   .     S
C372   C377    1.410   .     S
C373   C374    1.457   .     S
C374   C377    1.461   .     S
C374   C375    1.410   .     S
C375   C584    1.457   .     S
C375   C588    1.461   .     S
C376   C381    1.410   .     S
C377   C378    1.457   .     S
C378   C381    1.461   .     S
C378   C379    1.410   .     S
C379   C592    1.461   .     S
C379   C588    1.457   .     S
C380   C384    1.410   .     S
C381   C382    1.457   .     S
C382   C384    1.461   .     S
C382   C383    1.410   .     S
C383   C596    1.461   .     S
C383   C592    1.457   .     S
C385   C389    1.410   .     S
C386   C389    1.461   .     S
C386   C408    1.457   .     S
C386   C387    1.410   .     S
C387   C601    1.461   .     S
C387   C620    1.457   .     S
C388   C393    1.410   .     S
C389   C390    1.457   .     S
C390   C393    1.461   .     S
C390   C391    1.410   .     S
C391   C601    1.457   .     S
C391   C604    1.461   .     S
C392   C397    1.410   .     S
C393   C394    1.457   .     S
C394   C397    1.461   .     S
C394   C395    1.410   .     S
C395   C604    1.457   .     S
C395   C608    1.461   .     S
C396   C401    1.410   .     S
C397   C398    1.457   .     S
C398   C401    1.461   .     S
C398   C399    1.410   .     S
C399   C608    1.457   .     S
C399   C612    1.461   .     S
C400   C405    1.410   .     S
C401   C402    1.457   .     S
C402   C405    1.461   .     S
C402   C403    1.410   .     S
C403   C616    1.461   .     S
C403   C612    1.457   .     S
C404   C408    1.410   .     S
C405   C406    1.457   .     S
C406   C408    1.461   .     S
C406   C407    1.410   .     S
C407   C620    1.461   .     S
C407   C616    1.457   .     S
C409   C413    1.410   .     S
C410   C432    1.457   .     S
C410   C411    1.410   .     S
C411   C644    1.457   .     S
C412   C417    1.410   .     S
C413   C414    1.457   .     S
C414   C417    1.461   .     S
C414   C415    1.410   .     S
C415   C628    1.461   .     S
C415   C625    1.457   .     S
C416   C421    1.410   .     S
C417   C418    1.457   .     S
C418   C421    1.461   .     S
C418   C419    1.410   .     S
C419   C628    1.457   .     S
C419   C632    1.461   .     S
C420   C425    1.410   .     S
C421   C422    1.457   .     S
C422   C423    1.410   .     S
C423   C632    1.457   .     S
C424   C429    1.410   .     S
C425   C426    1.457   .     S
C426   C429    1.461   .     S
C426   C427    1.410   .     S
C427   C640    1.461   .     S
C427   C636    1.457   .     S
C428   C432    1.410   .     S
C429   C430    1.457   .     S
C430   C432    1.461   .     S
C430   C431    1.410   .     S
C431   C644    1.461   .     S
C431   C640    1.457   .     S
C433   C437    1.410   .     S
C434   C456    1.457   .     S
C434   C435    1.410   .     S
C435   C668    1.457   .     S
C436   C441    1.410   .     S
C437   C438    1.457   .     S
C438   C441    1.461   .     S
C438   C439    1.410   .     S
C439   C649    1.457   .     S
C439   C652    1.461   .     S
C440   C445    1.410   .     S
C441   C442    1.457   .     S
C442   C445    1.461   .     S
C442   C443    1.410   .     S
C443   C652    1.457   .     S
C443   C656    1.461   .     S
C444   C449    1.410   .     S
C445   C446    1.457   .     S
C446   C447    1.410   .     S
C447   C656    1.457   .     S
C448   C453    1.410   .     S
C449   C450    1.457   .     S
C450   C453    1.461   .     S
C450   C451    1.410   .     S
C451   C660    1.457   .     S
C451   C664    1.461   .     S
C452   C456    1.410   .     S
C453   C454    1.457   .     S
C454   C456    1.461   .     S
C454   C455    1.410   .     S
C455   C664    1.457   .     S
C455   C668    1.461   .     S
C457   C461    1.410   .     S
C458   C461    1.461   .     S
C458   C480    1.457   .     S
C458   C459    1.410   .     S
C459   C673    1.461   .     S
C459   C692    1.457   .     S
C460   C465    1.410   .     S
C461   C462    1.457   .     S
C462   C465    1.461   .     S
C462   C463    1.410   .     S
C463   C676    1.461   .     S
C463   C673    1.457   .     S
C464   C469    1.410   .     S
C465   C466    1.457   .     S
C466   C469    1.461   .     S
C466   C467    1.410   .     S
C467   C676    1.457   .     S
C467   C680    1.461   .     S
C468   C473    1.410   .     S
C469   C470    1.457   .     S
C470   C473    1.461   .     S
C470   C471    1.410   .     S
C471   C680    1.457   .     S
C471   C684    1.461   .     S
C472   C477    1.410   .     S
C473   C474    1.457   .     S
C474   C477    1.461   .     S
C474   C475    1.410   .     S
C475   C684    1.457   .     S
C475   C688    1.461   .     S
C476   C480    1.410   .     S
C477   C478    1.457   .     S
C478   C480    1.461   .     S
C478   C479    1.410   .     S
C479   C688    1.457   .     S
C479   C692    1.461   .     S
C481   C485    1.410   .     S
C482   C485    1.461   .     S
C482   C504    1.457   .     S
C482   C483    1.410   .     S
C483   C697    1.461   .     S
C483   C716    1.457   .     S
C484   C489    1.410   .     S
C485   C486    1.457   .     S
C486   C489    1.461   .     S
C486   C487    1.410   .     S
C487   C700    1.461   .     S
C487   C697    1.457   .     S
C488   C493    1.410   .     S
C489   C490    1.457   .     S
C490   C493    1.461   .     S
C490   C491    1.410   .     S
C491   C700    1.457   .     S
C491   C704    1.461   .     S
C492   C497    1.410   .     S
C493   C494    1.457   .     S
C494   C497    1.461   .     S
C494   C495    1.410   .     S
C495   C704    1.457   .     S
C495   C708    1.461   .     S
C496   C501    1.410   .     S
C497   C498    1.457   .     S
C498   C501    1.461   .     S
C498   C499    1.410   .     S
C499   C708    1.457   .     S
C499   C712    1.461   .     S
C500   C504    1.410   .     S
C501   C502    1.457   .     S
C502   C504    1.461   .     S
C502   C503    1.410   .     S
C503   C712    1.457   .     S
C503   C716    1.461   .     S
C505   C509    1.410   .     S
C506   C509    1.461   .     S
C506   C528    1.457   .     S
C506   C507    1.410   .     S
C507   C721    1.461   .     S
C507   C740    1.457   .     S
C508   C513    1.410   .     S
C509   C510    1.457   .     S
C510   C513    1.461   .     S
C510   C511    1.410   .     S
C511   C724    1.461   .     S
C511   C721    1.457   .     S
C512   C517    1.410   .     S
C513   C514    1.457   .     S
C514   C517    1.461   .     S
C514   C515    1.410   .     S
C515   C724    1.457   .     S
C515   C728    1.461   .     S
C516   C521    1.410   .     S
C517   C518    1.457   .     S
C518   C521    1.461   .     S
C518   C519    1.410   .     S
C519   C728    1.457   .     S
C519   C732    1.461   .     S
C520   C525    1.410   .     S
C521   C522    1.457   .     S
C522   C525    1.461   .     S
C522   C523    1.410   .     S
C523   C732    1.457   .     S
C523   C736    1.461   .     S
C524   C528    1.410   .     S
C525   C526    1.457   .     S
C526   C528    1.461   .     S
C526   C527    1.410   .     S
C527   C736    1.458   .     S
C527   C740    1.461   .     S
C529   C533    1.410   .     S
C530   C552    1.457   .     S
C530   C531    1.410   .     S
C531   C764    1.457   .     S
C532   C537    1.410   .     S
C533   C534    1.457   .     S
C534   C537    1.461   .     S
C534   C535    1.410   .     S
C535   C748    1.461   .     S
C535   C745    1.457   .     S
C536   C541    1.410   .     S
C537   C538    1.457   .     S
C538   C541    1.461   .     S
C538   C539    1.410   .     S
C539   C748    1.457   .     S
C539   C752    1.461   .     S
C540   C545    1.410   .     S
C541   C542    1.457   .     S
C542   C543    1.410   .     S
C543   C752    1.458   .     S
C544   C549    1.410   .     S
C545   C546    1.457   .     S
C546   C549    1.461   .     S
C546   C547    1.410   .     S
C547   C756    1.457   .     S
C547   C760    1.461   .     S
C548   C552    1.410   .     S
C549   C550    1.457   .     S
C550   C552    1.461   .     S
C550   C551    1.410   .     S
C551   C760    1.457   .     S
C551   C764    1.461   .     S
C553   C557    1.410   .     S
C554   C557    1.461   .     S
C554   C576    1.457   .     S
C554   C555    1.410   .     S
C555   C769    1.461   .     S
C555   C788    1.457   .     S
C556   C561    1.410   .     S
C557   C558    1.457   .     S
C558   C561    1.461   .     S
C558   C559    1.410   .     S
C559   C772    1.461   .     S
C559   C769    1.457   .     S
C560   C565    1.410   .     S
C561   C562    1.457   .     S
C562   C565    1.461   .     S
C562   C563    1.410   .     S
C563   C772    1.457   .     S
C563   C776    1.461   .     S
C564   C569    1.410   .     S
C565   C566    1.457   .     S
C566   C569    1.461   .     S
C566   C567    1.410   .     S
C567   C776    1.457   .     S
C567   C780    1.461   .     S
C568   C573    1.410   .     S
C569   C570    1.457   .     S
C570   C573    1.461   .     S
C570   C571    1.410   .     S
C571   C780    1.457   .     S
C571   C784    1.461   .     S
C572   C576    1.410   .     S
C573   C574    1.457   .     S
C574   C576    1.461   .     S
C574   C575    1.410   .     S
C575   C784    1.457   .     S
C575   C788    1.461   .     S
C577   C581    1.410   .     S
C578   C581    1.461   .     S
C578   C600    1.457   .     S
C578   C579    1.410   .     S
C579   C793    1.461   .     S
C579   C812    1.457   .     S
C580   C585    1.410   .     S
C581   C582    1.457   .     S
C582   C585    1.461   .     S
C582   C583    1.410   .     S
C583   C796    1.461   .     S
C583   C793    1.457   .     S
C584   C589    1.410   .     S
C585   C586    1.457   .     S
C586   C589    1.461   .     S
C586   C587    1.410   .     S
C587   C796    1.457   .     S
C587   C800    1.461   .     S
C588   C593    1.410   .     S
C589   C590    1.457   .     S
C590   C593    1.461   .     S
C590   C591    1.410   .     S
C591   C800    1.457   .     S
C591   C804    1.461   .     S
C592   C597    1.410   .     S
C593   C594    1.457   .     S
C594   C597    1.461   .     S
C594   C595    1.410   .     S
C595   C804    1.457   .     S
C595   C808    1.461   .     S
C596   C600    1.410   .     S
C597   C598    1.457   .     S
C598   C600    1.461   .     S
C598   C599    1.410   .     S
C599   C808    1.457   .     S
C599   C812    1.461   .     S
C601   C605    1.410   .     S
C602   C605    1.461   .     S
C602   C624    1.457   .     S
C602   C603    1.410   .     S
C603   C817    1.461   .     S
C603   C836    1.457   .     S
C604   C609    1.410   .     S
C605   C606    1.457   .     S
C606   C609    1.461   .     S
C606   C607    1.410   .     S
C607   C817    1.457   .     S
C607   C820    1.461   .     S
C608   C613    1.410   .     S
C609   C610    1.457   .     S
C610   C613    1.461   .     S
C610   C611    1.410   .     S
C611   C820    1.457   .     S
C611   C824    1.461   .     S
C612   C617    1.410   .     S
C613   C614    1.457   .     S
C614   C617    1.461   .     S
C614   C615    1.410   .     S
C615   C824    1.457   .     S
C615   C828    1.461   .     S
C616   C621    1.410   .     S
C617   C618    1.457   .     S
C618   C621    1.461   .     S
C618   C619    1.410   .     S
C619   C828    1.457   .     S
C619   C832    1.461   .     S
C620   C624    1.410   .     S
C621   C622    1.457   .     S
C622   C624    1.461   .     S
C622   C623    1.410   .     S
C623   C832    1.457   .     S
C623   C836    1.461   .     S
C625   C629    1.410   .     S
C626   C648    1.457   .     S
C626   C627    1.410   .     S
C627   C860    1.457   .     S
C628   C633    1.410   .     S
C629   C630    1.457   .     S
C630   C633    1.461   .     S
C630   C631    1.410   .     S
C631   C844    1.461   .     S
C631   C841    1.457   .     S
C632   C637    1.410   .     S
C633   C634    1.457   .     S
C634   C637    1.461   .     S
C634   C635    1.410   .     S
C635   C844    1.457   .     S
C635   C848    1.461   .     S
C636   C641    1.410   .     S
C637   C638    1.457   .     S
C638   C639    1.410   .     S
C639   C848    1.457   .     S
C640   C645    1.410   .     S
C641   C642    1.457   .     S
C642   C645    1.461   .     S
C642   C643    1.410   .     S
C643   C852    1.457   .     S
C643   C856    1.461   .     S
C644   C648    1.410   .     S
C645   C646    1.457   .     S
C646   C648    1.461   .     S
C646   C647    1.410   .     S
C647   C856    1.457   .     S
C647   C860    1.461   .     S
C649   C653    1.410   .     S
C650   C672    1.457   .     S
C650   C651    1.410   .     S
C651   C884    1.457   .     S
C652   C657    1.410   .     S
C653   C654    1.457   .     S
C654   C657    1.461   .     S
C654   C655    1.410   .     S
C655   C865    1.457   .     S
C655   C868    1.461   .     S
C656   C661    1.410   .     S
C657   C658    1.457   .     S
C658   C661    1.461   .     S
C658   C659    1.410   .     S
C659   C868    1.457   .     S
C659   C872    1.461   .     S
C660   C665    1.410   .     S
C661   C662    1.457   .     S
C662   C663    1.410   .     S
C663   C872    1.457   .     S
C664   C669    1.410   .     S
C665   C666    1.457   .     S
C666   C669    1.461   .     S
C666   C667    1.410   .     S
C667   C876    1.457   .     S
C667   C880    1.461   .     S
C668   C672    1.410   .     S
C669   C670    1.457   .     S
C670   C672    1.461   .     S
C670   C671    1.410   .     S
C671   C880    1.457   .     S
C671   C884    1.461   .     S
C673   C677    1.410   .     S
C674   C677    1.461   .     S
C674   C696    1.457   .     S
C674   C675    1.410   .     S
C675   C889    1.461   .     S
C675   C908    1.457   .     S
C676   C681    1.410   .     S
C677   C678    1.457   .     S
C678   C681    1.461   .     S
C678   C679    1.410   .     S
C679   C892    1.461   .     S
C679   C889    1.457   .     S
C680   C685    1.410   .     S
C681   C682    1.457   .     S
C682   C685    1.461   .     S
C682   C683    1.410   .     S
C683   C892    1.457   .     S
C683   C896    1.461   .     S
C684   C689    1.410   .     S
C685   C686    1.457   .     S
C686   C689    1.461   .     S
C686   C687    1.410   .     S
C687   C896    1.457   .     S
C687   C900    1.461   .     S
C688   C693    1.410   .     S
C689   C690    1.457   .     S
C690   C693    1.461   .     S
C690   C691    1.410   .     S
C691   C900    1.457   .     S
C691   C904    1.461   .     S
C692   C696    1.410   .     S
C693   C694    1.457   .     S
C694   C696    1.461   .     S
C694   C695    1.410   .     S
C695   C904    1.457   .     S
C695   C908    1.461   .     S
C697   C701    1.410   .     S
C698   C701    1.461   .     S
C698   C720    1.457   .     S
C698   C699    1.410   .     S
C699   C913    1.461   .     S
C699   C932    1.457   .     S
C700   C705    1.410   .     S
C701   C702    1.457   .     S
C702   C705    1.461   .     S
C702   C703    1.410   .     S
C703   C916    1.461   .     S
C703   C913    1.457   .     S
C704   C709    1.410   .     S
C705   C706    1.457   .     S
C706   C709    1.461   .     S
C706   C707    1.410   .     S
C707   C916    1.457   .     S
C707   C920    1.461   .     S
C708   C713    1.410   .     S
C709   C710    1.457   .     S
C710   C713    1.461   .     S
C710   C711    1.410   .     S
C711   C920    1.457   .     S
C711   C924    1.461   .     S
C712   C717    1.410   .     S
C713   C714    1.457   .     S
C714   C717    1.461   .     S
C714   C715    1.410   .     S
C715   C924    1.457   .     S
C715   C928    1.461   .     S
C716   C720    1.410   .     S
C717   C718    1.457   .     S
C718   C720    1.461   .     S
C718   C719    1.410   .     S
C719   C928    1.457   .     S
C719   C932    1.461   .     S
C721   C725    1.410   .     S
C722   C725    1.461   .     S
C722   C744    1.457   .     S
C722   C723    1.410   .     S
C723   C937    1.461   .     S
C723   C956    1.457   .     S
C724   C729    1.410   .     S
C725   C726    1.457   .     S
C726   C729    1.461   .     S
C726   C727    1.410   .     S
C727   C940    1.461   .     S
C727   C937    1.457   .     S
C728   C733    1.410   .     S
C729   C730    1.457   .     S
C730   C733    1.461   .     S
C730   C731    1.410   .     S
C731   C940    1.457   .     S
C731   C944    1.461   .     S
C732   C737    1.410   .     S
C733   C734    1.457   .     S
C734   C737    1.461   .     S
C734   C735    1.410   .     S
C735   C944    1.457   .     S
C735   C948    1.461   .     S
C736   C741    1.410   .     S
C737   C738    1.457   .     S
C738   C741    1.461   .     S
C738   C739    1.410   .     S
C739   C948    1.457   .     S
C739   C952    1.461   .     S
C740   C744    1.410   .     S
C741   C742    1.457   .     S
C742   C744    1.461   .     S
C742   C743    1.410   .     S
C743   C952    1.457   .     S
C743   C956    1.461   .     S
C745   C749    1.410   .     S
C746   C768    1.458   .     S
C746   C747    1.410   .     S
C747   C980    1.457   .     S
C748   C753    1.410   .     S
C749   C750    1.457   .     S
C750   C753    1.461   .     S
C750   C751    1.410   .     S
C751   C964    1.461   .     S
C751   C961    1.457   .     S
C752   C757    1.410   .     S
C753   C754    1.457   .     S
C754   C757    1.461   .     S
C754   C755    1.410   .     S
C755   C964    1.457   .     S
C755   C968    1.461   .     S
C756   C761    1.410   .     S
C757   C758    1.457   .     S
C758   C759    1.410   .     S
C759   C968    1.457   .     S
C760   C765    1.410   .     S
C761   C762    1.457   .     S
C762   C765    1.461   .     S
C762   C763    1.410   .     S
C763   C972    1.457   .     S
C763   C976    1.461   .     S
C764   C768    1.410   .     S
C765   C766    1.457   .     S
C766   C768    1.461   .     S
C766   C767    1.410   .     S
C767   C976    1.457   .     S
C767   C980    1.461   .     S
C769   C773    1.410   .     S
C770   C773    1.461   .     S
C770   C792    1.457   .     S
C770   C771    1.410   .     S
C771   C985    1.461   .     S
C771   C1004   1.458   .     S
C772   C777    1.410   .     S
C773   C774    1.457   .     S
C774   C777    1.461   .     S
C774   C775    1.410   .     S
C775   C988    1.461   .     S
C775   C985    1.457   .     S
C776   C781    1.410   .     S
C777   C778    1.457   .     S
C778   C781    1.461   .     S
C778   C779    1.410   .     S
C779   C988    1.457   .     S
C779   C992    1.461   .     S
C780   C785    1.410   .     S
C781   C782    1.457   .     S
C782   C785    1.461   .     S
C782   C783    1.410   .     S
C783   C992    1.457   .     S
C783   C996    1.461   .     S
C784   C789    1.410   .     S
C785   C786    1.457   .     S
C786   C789    1.461   .     S
C786   C787    1.410   .     S
C787   C996    1.457   .     S
C787   C1000   1.461   .     S
C788   C792    1.410   .     S
C789   C790    1.457   .     S
C790   C792    1.461   .     S
C790   C791    1.410   .     S
C791   C1000   1.457   .     S
C791   C1004   1.461   .     S
C793   C797    1.410   .     S
C794   C797    1.461   .     S
C794   C816    1.457   .     S
C794   C795    1.410   .     S
C795   C1009   1.461   .     S
C795   C1028   1.457   .     S
C796   C801    1.410   .     S
C797   C798    1.457   .     S
C798   C801    1.461   .     S
C798   C799    1.410   .     S
C799   C1012   1.461   .     S
C799   C1009   1.457   .     S
C800   C805    1.410   .     S
C801   C802    1.457   .     S
C802   C805    1.461   .     S
C802   C803    1.410   .     S
C803   C1012   1.457   .     S
C803   C1016   1.461   .     S
C804   C809    1.410   .     S
C805   C806    1.457   .     S
C806   C809    1.461   .     S
C806   C807    1.410   .     S
C807   C1016   1.457   .     S
C807   C1020   1.461   .     S
C808   C813    1.410   .     S
C809   C810    1.457   .     S
C810   C813    1.461   .     S
C810   C811    1.410   .     S
C811   C1020   1.457   .     S
C811   C1024   1.461   .     S
C812   C816    1.410   .     S
C813   C814    1.457   .     S
C814   C816    1.461   .     S
C814   C815    1.410   .     S
C815   C1024   1.458   .     S
C815   C1028   1.461   .     S
C817   C821    1.410   .     S
C818   C821    1.461   .     S
C818   C840    1.457   .     S
C818   C819    1.410   .     S
C819   C1033   1.461   .     S
C819   C1052   1.458   .     S
C820   C825    1.410   .     S
C821   C822    1.457   .     S
C822   C825    1.461   .     S
C822   C823    1.410   .     S
C823   C1033   1.457   .     S
C823   C1036   1.461   .     S
C824   C829    1.410   .     S
C825   C826    1.457   .     S
C826   C829    1.461   .     S
C826   C827    1.410   .     S
C827   C1036   1.457   .     S
C827   C1040   1.461   .     S
C828   C833    1.410   .     S
C829   C830    1.457   .     S
C830   C833    1.461   .     S
C830   C831    1.410   .     S
C831   C1040   1.457   .     S
C831   C1044   1.461   .     S
C832   C837    1.410   .     S
C833   C834    1.457   .     S
C834   C837    1.461   .     S
C834   C835    1.410   .     S
C835   C1044   1.457   .     S
C835   C1048   1.461   .     S
C836   C840    1.410   .     S
C837   C838    1.457   .     S
C838   C840    1.461   .     S
C838   C839    1.410   .     S
C839   C1048   1.457   .     S
C839   C1052   1.461   .     S
C841   C845    1.410   .     S
C842   C864    1.457   .     S
C842   C843    1.410   .     S
C843   C1076   1.457   .     S
C844   C849    1.410   .     S
C845   C846    1.457   .     S
C846   C849    1.461   .     S
C846   C847    1.410   .     S
C847   C1060   1.461   .     S
C847   C1057   1.457   .     S
C848   C853    1.410   .     S
C849   C850    1.457   .     S
C850   C853    1.461   .     S
C850   C851    1.410   .     S
C851   C1060   1.457   .     S
C851   C1064   1.461   .     S
C852   C857    1.410   .     S
C853   C854    1.457   .     S
C854   C855    1.410   .     S
C855   C1064   1.457   .     S
C856   C861    1.410   .     S
C857   C858    1.457   .     S
C858   C861    1.461   .     S
C858   C859    1.410   .     S
C859   C1068   1.457   .     S
C859   C1072   1.461   .     S
C860   C864    1.410   .     S
C861   C862    1.457   .     S
C862   C864    1.461   .     S
C862   C863    1.410   .     S
C863   C1072   1.457   .     S
C863   C1076   1.461   .     S
C865   C869    1.410   .     S
C866   C867    1.410   .     S
C866   C888    1.457   .     S
C867   C1100   1.457   .     S
C868   C873    1.410   .     S
C869   C870    1.457   .     S
C870   C871    1.410   .     S
C870   C873    1.461   .     S
C871   C1081   1.457   .     S
C871   C1084   1.461   .     S
C872   C877    1.410   .     S
C873   C874    1.457   .     S
C874   C875    1.410   .     S
C874   C877    1.461   .     S
C875   C1084   1.457   .     S
C875   C1088   1.461   .     S
C876   C881    1.410   .     S
C877   C878    1.457   .     S
C878   C879    1.410   .     S
C879   C1088   1.457   .     S
C880   C885    1.410   .     S
C881   C882    1.457   .     S
C882   C883    1.410   .     S
C882   C885    1.461   .     S
C883   C1096   1.461   .     S
C883   C1092   1.457   .     S
C884   C888    1.410   .     S
C885   C886    1.457   .     S
C886   C887    1.410   .     S
C886   C888    1.461   .     S
C887   C1100   1.461   .     S
C887   C1096   1.457   .     S
C889   C893    1.410   .     S
C890   C891    1.410   .     S
C890   C893    1.461   .     S
C890   C912    1.457   .     S
C891   C1105   1.461   .     S
C891   C1124   1.457   .     S
C892   C897    1.410   .     S
C893   C894    1.457   .     S
C894   C895    1.410   .     S
C894   C897    1.461   .     S
C895   C1108   1.461   .     S
C895   C1105   1.457   .     S
C896   C901    1.410   .     S
C897   C898    1.457   .     S
C898   C899    1.410   .     S
C898   C901    1.461   .     S
C899   C1108   1.457   .     S
C899   C1112   1.461   .     S
C900   C905    1.410   .     S
C901   C902    1.457   .     S
C902   C903    1.410   .     S
C902   C905    1.461   .     S
C903   C1112   1.457   .     S
C903   C1116   1.461   .     S
C904   C909    1.410   .     S
C905   C906    1.457   .     S
C906   C907    1.410   .     S
C906   C909    1.461   .     S
C907   C1120   1.461   .     S
C907   C1116   1.457   .     S
C908   C912    1.410   .     S
C909   C910    1.457   .     S
C910   C911    1.410   .     S
C910   C912    1.461   .     S
C911   C1124   1.461   .     S
C911   C1120   1.458   .     S
C913   C917    1.410   .     S
C914   C915    1.410   .     S
C914   C917    1.461   .     S
C914   C936    1.457   .     S
C915   C1129   1.461   .     S
C915   C1148   1.457   .     S
C916   C921    1.410   .     S
C917   C918    1.457   .     S
C918   C919    1.410   .     S
C918   C921    1.461   .     S
C919   C1132   1.461   .     S
C919   C1129   1.457   .     S
C920   C925    1.410   .     S
C921   C922    1.457   .     S
C922   C923    1.410   .     S
C922   C925    1.461   .     S
C923   C1132   1.457   .     S
C923   C1136   1.461   .     S
C924   C929    1.410   .     S
C925   C926    1.457   .     S
C926   C927    1.410   .     S
C926   C929    1.461   .     S
C927   C1136   1.457   .     S
C927   C1140   1.461   .     S
C928   C933    1.410   .     S
C929   C930    1.457   .     S
C930   C931    1.410   .     S
C930   C933    1.461   .     S
C931   C1144   1.461   .     S
C931   C1140   1.457   .     S
C932   C936    1.410   .     S
C933   C934    1.457   .     S
C934   C935    1.410   .     S
C934   C936    1.461   .     S
C935   C1148   1.461   .     S
C935   C1144   1.457   .     S
C937   C941    1.410   .     S
C938   C939    1.410   .     S
C938   C941    1.461   .     S
C938   C960    1.457   .     S
C939   C1153   1.461   .     S
C939   C1172   1.457   .     S
C940   C945    1.410   .     S
C941   C942    1.457   .     S
C942   C943    1.410   .     S
C942   C945    1.461   .     S
C943   C1156   1.461   .     S
C943   C1153   1.457   .     S
C944   C949    1.410   .     S
C945   C946    1.458   .     S
C946   C947    1.410   .     S
C946   C949    1.461   .     S
C947   C1156   1.457   .     S
C947   C1160   1.461   .     S
C948   C953    1.410   .     S
C949   C950    1.457   .     S
C950   C951    1.410   .     S
C950   C953    1.461   .     S
C951   C1160   1.457   .     S
C951   C1164   1.461   .     S
C952   C957    1.410   .     S
C953   C954    1.457   .     S
C954   C955    1.410   .     S
C954   C957    1.461   .     S
C955   C1168   1.461   .     S
C955   C1164   1.457   .     S
C956   C960    1.410   .     S
C957   C958    1.457   .     S
C958   C959    1.410   .     S
C958   C960    1.461   .     S
C959   C1172   1.461   .     S
C959   C1168   1.457   .     S
C961   C965    1.410   .     S
C962   C963    1.410   .     S
C962   C984    1.457   .     S
C963   C1196   1.457   .     S
C964   C969    1.410   .     S
C965   C966    1.457   .     S
C966   C967    1.410   .     S
C966   C969    1.461   .     S
C967   C1180   1.461   .     S
C967   C1177   1.457   .     S
C968   C973    1.410   .     S
C969   C970    1.457   .     S
C970   C971    1.410   .     S
C970   C973    1.461   .     S
C971   C1180   1.457   .     S
C971   C1184   1.461   .     S
C972   C977    1.410   .     S
C973   C974    1.457   .     S
C974   C975    1.410   .     S
C975   C1184   1.457   .     S
C976   C981    1.410   .     S
C977   C978    1.457   .     S
C978   C979    1.410   .     S
C978   C981    1.461   .     S
C979   C1192   1.461   .     S
C979   C1188   1.457   .     S
C980   C984    1.410   .     S
C981   C982    1.457   .     S
C982   C983    1.410   .     S
C982   C984    1.461   .     S
C983   C1196   1.461   .     S
C983   C1192   1.457   .     S
C985   C989    1.410   .     S
C986   C987    1.410   .     S
C986   C989    1.461   .     S
C986   C1008   1.457   .     S
C987   C1201   1.461   .     S
C987   C1220   1.458   .     S
C988   C993    1.410   .     S
C989   C990    1.457   .     S
C990   C991    1.410   .     S
C990   C993    1.461   .     S
C991   C1204   1.461   .     S
C991   C1201   1.457   .     S
C992   C997    1.410   .     S
C993   C994    1.457   .     S
C994   C995    1.410   .     S
C994   C997    1.461   .     S
C995   C1204   1.457   .     S
C995   C1208   1.461   .     S
C996   C1001   1.410   .     S
C997   C998    1.457   .     S
C998   C999    1.410   .     S
C998   C1001   1.461   .     S
C999   C1208   1.457   .     S
C999   C1212   1.461   .     S
C1000  C1005   1.410   .     S
C1001  C1002   1.457   .     S
C1002  C1003   1.410   .     S
C1002  C1005   1.461   .     S
C1003  C1216   1.461   .     S
C1003  C1212   1.457   .     S
C1004  C1008   1.410   .     S
C1005  C1006   1.457   .     S
C1006  C1007   1.410   .     S
C1006  C1008   1.461   .     S
C1007  C1220   1.461   .     S
C1007  C1216   1.457   .     S
C1009  C1013   1.410   .     S
C1010  C1011   1.410   .     S
C1010  C1013   1.461   .     S
C1010  C1032   1.457   .     S
C1011  C1225   1.461   .     S
C1011  C1244   1.457   .     S
C1012  C1017   1.410   .     S
C1013  C1014   1.457   .     S
C1014  C1015   1.410   .     S
C1014  C1017   1.461   .     S
C1015  C1228   1.461   .     S
C1015  C1225   1.457   .     S
C1016  C1021   1.410   .     S
C1017  C1018   1.457   .     S
C1018  C1019   1.410   .     S
C1018  C1021   1.461   .     S
C1019  C1228   1.457   .     S
C1019  C1232   1.461   .     S
C1020  C1025   1.410   .     S
C1021  C1022   1.457   .     S
C1022  C1023   1.410   .     S
C1022  C1025   1.461   .     S
C1023  C1232   1.457   .     S
C1023  C1236   1.461   .     S
C1024  C1029   1.410   .     S
C1025  C1026   1.457   .     S
C1026  C1027   1.410   .     S
C1026  C1029   1.461   .     S
C1027  C1240   1.461   .     S
C1027  C1236   1.457   .     S
C1028  C1032   1.410   .     S
C1029  C1030   1.457   .     S
C1030  C1031   1.410   .     S
C1030  C1032   1.461   .     S
C1031  C1244   1.461   .     S
C1031  C1240   1.457   .     S
C1033  C1037   1.410   .     S
C1034  C1035   1.410   .     S
C1034  C1037   1.461   .     S
C1034  C1056   1.457   .     S
C1035  C1249   1.461   .     S
C1035  C1268   1.457   .     S
C1036  C1041   1.410   .     S
C1037  C1038   1.457   .     S
C1038  C1039   1.410   .     S
C1038  C1041   1.461   .     S
C1039  C1249   1.457   .     S
C1039  C1252   1.461   .     S
C1040  C1045   1.410   .     S
C1041  C1042   1.457   .     S
C1042  C1043   1.410   .     S
C1042  C1045   1.461   .     S
C1043  C1252   1.457   .     S
C1043  C1256   1.461   .     S
C1044  C1049   1.410   .     S
C1045  C1046   1.457   .     S
C1046  C1047   1.410   .     S
C1046  C1049   1.461   .     S
C1047  C1256   1.457   .     S
C1047  C1260   1.461   .     S
C1048  C1053   1.410   .     S
C1049  C1050   1.457   .     S
C1050  C1051   1.410   .     S
C1050  C1053   1.461   .     S
C1051  C1264   1.461   .     S
C1051  C1260   1.457   .     S
C1052  C1056   1.410   .     S
C1053  C1054   1.457   .     S
C1054  C1055   1.410   .     S
C1054  C1056   1.461   .     S
C1055  C1268   1.461   .     S
C1055  C1264   1.457   .     S
C1057  C1061   1.410   .     S
C1058  C1059   1.410   .     S
C1058  C1080   1.457   .     S
C1059  C1292   1.457   .     S
C1060  C1065   1.410   .     S
C1061  C1062   1.457   .     S
C1062  C1063   1.410   .     S
C1062  C1065   1.461   .     S
C1063  C1276   1.461   .     S
C1063  C1273   1.457   .     S
C1064  C1069   1.410   .     S
C1065  C1066   1.457   .     S
C1066  C1067   1.410   .     S
C1066  C1069   1.461   .     S
C1067  C1276   1.457   .     S
C1067  C1280   1.461   .     S
C1068  C1073   1.410   .     S
C1069  C1070   1.458   .     S
C1070  C1071   1.410   .     S
C1071  C1280   1.457   .     S
C1072  C1077   1.410   .     S
C1073  C1074   1.457   .     S
C1074  C1075   1.410   .     S
C1074  C1077   1.461   .     S
C1075  C1288   1.461   .     S
C1075  C1284   1.457   .     S
C1076  C1080   1.410   .     S
C1077  C1078   1.457   .     S
C1078  C1079   1.410   .     S
C1078  C1080   1.461   .     S
C1079  C1292   1.461   .     S
C1079  C1288   1.457   .     S
C1081  C1085   1.410   .     S
C1082  C1104   1.457   .     S
C1082  C1083   1.410   .     S
C1084  C1089   1.410   .     S
C1085  C1086   1.457   .     S
C1086  C1089   1.461   .     S
C1086  C1087   1.410   .     S
C1088  C1093   1.410   .     S
C1089  C1090   1.457   .     S
C1090  C1093   1.461   .     S
C1090  C1091   1.410   .     S
C1092  C1097   1.410   .     S
C1093  C1094   1.457   .     S
C1094  C1095   1.410   .     S
C1096  C1101   1.410   .     S
C1097  C1098   1.457   .     S
C1098  C1101   1.461   .     S
C1098  C1099   1.410   .     S
C1100  C1104   1.410   .     S
C1101  C1102   1.457   .     S
C1102  C1104   1.461   .     S
C1102  C1103   1.410   .     S
C1105  C1109   1.410   .     S
C1106  C1109   1.461   .     S
C1106  C1128   1.457   .     S
C1106  C1107   1.410   .     S
C1108  C1113   1.410   .     S
C1109  C1110   1.457   .     S
C1110  C1113   1.461   .     S
C1110  C1111   1.410   .     S
C1112  C1117   1.410   .     S
C1113  C1114   1.457   .     S
C1114  C1117   1.461   .     S
C1114  C1115   1.410   .     S
C1116  C1121   1.410   .     S
C1117  C1118   1.457   .     S
C1118  C1121   1.461   .     S
C1118  C1119   1.410   .     S
C1120  C1125   1.410   .     S
C1121  C1122   1.457   .     S
C1122  C1125   1.461   .     S
C1122  C1123   1.410   .     S
C1124  C1128   1.410   .     S
C1125  C1126   1.457   .     S
C1126  C1128   1.461   .     S
C1126  C1127   1.410   .     S
C1129  C1133   1.410   .     S
C1130  C1133   1.461   .     S
C1130  C1152   1.457   .     S
C1130  C1131   1.410   .     S
C1132  C1137   1.410   .     S
C1133  C1134   1.457   .     S
C1134  C1137   1.461   .     S
C1134  C1135   1.410   .     S
C1136  C1141   1.410   .     S
C1137  C1138   1.457   .     S
C1138  C1141   1.461   .     S
C1138  C1139   1.410   .     S
C1140  C1145   1.410   .     S
C1141  C1142   1.457   .     S
C1142  C1145   1.461   .     S
C1142  C1143   1.410   .     S
C1144  C1149   1.410   .     S
C1145  C1146   1.457   .     S
C1146  C1149   1.461   .     S
C1146  C1147   1.410   .     S
C1148  C1152   1.410   .     S
C1149  C1150   1.457   .     S
C1150  C1152   1.461   .     S
C1150  C1151   1.410   .     S
C1153  C1157   1.410   .     S
C1154  C1157   1.461   .     S
C1154  C1176   1.457   .     S
C1154  C1155   1.410   .     S
C1156  C1161   1.410   .     S
C1157  C1158   1.457   .     S
C1158  C1161   1.461   .     S
C1158  C1159   1.410   .     S
C1160  C1165   1.410   .     S
C1161  C1162   1.458   .     S
C1162  C1165   1.461   .     S
C1162  C1163   1.410   .     S
C1164  C1169   1.410   .     S
C1165  C1166   1.457   .     S
C1166  C1169   1.461   .     S
C1166  C1167   1.410   .     S
C1168  C1173   1.410   .     S
C1169  C1170   1.457   .     S
C1170  C1173   1.461   .     S
C1170  C1171   1.410   .     S
C1172  C1176   1.410   .     S
C1173  C1174   1.457   .     S
C1174  C1176   1.461   .     S
C1174  C1175   1.410   .     S
C1177  C1181   1.410   .     S
C1178  C1200   1.457   .     S
C1178  C1179   1.410   .     S
C1180  C1185   1.410   .     S
C1181  C1182   1.457   .     S
C1182  C1185   1.461   .     S
C1182  C1183   1.410   .     S
C1184  C1189   1.410   .     S
C1185  C1186   1.458   .     S
C1186  C1189   1.461   .     S
C1186  C1187   1.410   .     S
C1188  C1193   1.410   .     S
C1189  C1190   1.457   .     S
C1190  C1191   1.410   .     S
C1192  C1197   1.410   .     S
C1193  C1194   1.457   .     S
C1194  C1197   1.461   .     S
C1194  C1195   1.410   .     S
C1196  C1200   1.410   .     S
C1197  C1198   1.457   .     S
C1198  C1200   1.461   .     S
C1198  C1199   1.410   .     S
C1201  C1205   1.410   .     S
C1202  C1205   1.461   .     S
C1202  C1224   1.457   .     S
C1202  C1203   1.410   .     S
C1204  C1209   1.410   .     S
C1205  C1206   1.457   .     S
C1206  C1209   1.461   .     S
C1206  C1207   1.410   .     S
C1208  C1213   1.410   .     S
C1209  C1210   1.458   .     S
C1210  C1213   1.461   .     S
C1210  C1211   1.410   .     S
C1212  C1217   1.410   .     S
C1213  C1214   1.457   .     S
C1214  C1217   1.461   .     S
C1214  C1215   1.410   .     S
C1216  C1221   1.410   .     S
C1217  C1218   1.457   .     S
C1218  C1221   1.461   .     S
C1218  C1219   1.410   .     S
C1220  C1224   1.410   .     S
C1221  C1222   1.457   .     S
C1222  C1224   1.461   .     S
C1222  C1223   1.410   .     S
C1225  C1229   1.410   .     S
C1226  C1229   1.461   .     S
C1226  C1248   1.457   .     S
C1226  C1227   1.410   .     S
C1228  C1233   1.410   .     S
C1229  C1230   1.457   .     S
C1230  C1233   1.461   .     S
C1230  C1231   1.410   .     S
C1232  C1237   1.410   .     S
C1233  C1234   1.457   .     S
C1234  C1237   1.461   .     S
C1234  C1235   1.410   .     S
C1236  C1241   1.410   .     S
C1237  C1238   1.457   .     S
C1238  C1241   1.461   .     S
C1238  C1239   1.410   .     S
C1240  C1245   1.410   .     S
C1241  C1242   1.457   .     S
C1242  C1245   1.461   .     S
C1242  C1243   1.410   .     S
C1244  C1248   1.410   .     S
C1245  C1246   1.457   .     S
C1246  C1248   1.461   .     S
C1246  C1247   1.410   .     S
C1249  C1253   1.410   .     S
C1250  C1253   1.461   .     S
C1250  C1272   1.457   .     S
C1250  C1251   1.410   .     S
C1252  C1257   1.410   .     S
C1253  C1254   1.457   .     S
C1254  C1257   1.461   .     S
C1254  C1255   1.410   .     S
C1256  C1261   1.410   .     S
C1257  C1258   1.457   .     S
C1258  C1261   1.461   .     S
C1258  C1259   1.410   .     S
C1260  C1265   1.410   .     S
C1261  C1262   1.457   .     S
C1262  C1265   1.461   .     S
C1262  C1263   1.410   .     S
C1264  C1269   1.410   .     S
C1265  C1266   1.457   .     S
C1266  C1269   1.461   .     S
C1266  C1267   1.410   .     S
C1268  C1272   1.410   .     S
C1269  C1270   1.457   .     S
C1270  C1272   1.461   .     S
C1270  C1271   1.410   .     S
C1273  C1277   1.410   .     S
C1274  C1296   1.457   .     S
C1274  C1275   1.410   .     S
C1276  C1281   1.410   .     S
C1277  C1278   1.457   .     S
C1278  C1281   1.461   .     S
C1278  C1279   1.410   .     S
C1280  C1285   1.410   .     S
C1281  C1282   1.457   .     S
C1282  C1285   1.461   .     S
C1282  C1283   1.410   .     S
C1284  C1289   1.410   .     S
C1285  C1286   1.457   .     S
C1286  C1287   1.410   .     S
C1288  C1293   1.410   .     S
C1289  C1290   1.457   .     S
C1290  C1293   1.461   .     S
C1290  C1291   1.410   .     S
C1292  C1296   1.410   .     S
C1293  C1294   1.457   .     S
C1294  C1296   1.461   .     S
C1294  C1295   1.410   .     S
