data_70
_audit_creation_date              2023-12-23
_audit_creation_method            'Materials Studio'
_symmetry_space_group_name_H-M    'P1'
_symmetry_Int_Tables_number       1
_symmetry_cell_setting            triclinic
loop_
_symmetry_equiv_pos_as_xyz
  x,y,z
_cell_length_a                    27.5313
_cell_length_b                    27.5362
_cell_length_c                    25.5172
_cell_angle_alpha                 89.9982
_cell_angle_beta                  89.9994
_cell_angle_gamma                 60.5558
loop_
_atom_site_label
_atom_site_type_symbol
_atom_site_fract_x
_atom_site_fract_y
_atom_site_fract_z
_atom_site_U_iso_or_equiv
_atom_site_adp_type
_atom_site_occupancy
C1     C     0.03633   0.24835   0.00801   0.00000  Uiso   1.00
C2     C     0.03633   0.24836   0.06350   0.00000  Uiso   1.00
C3     C     0.98389   0.27671   0.09134   0.00000  Uiso   1.00
C4     C     0.93562   0.28269   0.00799   0.00000  Uiso   1.00
C5     C     0.93562   0.28269   0.06352   0.00000  Uiso   1.00
C6     C     0.90057   0.26610   0.09135   0.00000  Uiso   1.00
C7     C     0.98389   0.27671   0.14683   0.00000  Uiso   1.00
C8     C     0.88399   0.23103   0.00799   0.00000  Uiso   1.00
C9     C     0.88399   0.23104   0.06352   0.00000  Uiso   1.00
C10    C     0.88997   0.18278   0.09134   0.00000  Uiso   1.00
C11    C     0.90057   0.26610   0.14683   0.00000  Uiso   1.00
C12    C     0.91831   0.13035   0.00801   0.00000  Uiso   1.00
C13    C     0.91831   0.13034   0.06350   0.00000  Uiso   1.00
C14    C     0.96367   0.08498   0.09135   0.00000  Uiso   1.00
C15    C     0.88998   0.18278   0.14684   0.00000  Uiso   1.00
C16    C     0.01611   0.05663   0.00801   0.00000  Uiso   1.00
C17    C     0.01611   0.05663   0.06350   0.00000  Uiso   1.00
C18    C     0.06438   0.05064   0.09133   0.00000  Uiso   1.00
C19    C     0.96367   0.08498   0.14683   0.00000  Uiso   1.00
C20    C     0.09943   0.06723   0.00802   0.00000  Uiso   1.00
C21    C     0.09943   0.06723   0.06350   0.00000  Uiso   1.00
C22    C     0.11601   0.10230   0.09133   0.00000  Uiso   1.00
C23    C     0.06438   0.05064   0.14685   0.00000  Uiso   1.00
C24    C     0.11003   0.15056   0.00801   0.00000  Uiso   1.00
C25    C     0.11003   0.15056   0.06350   0.00000  Uiso   1.00
C26    C     0.08169   0.20299   0.09134   0.00000  Uiso   1.00
C27    C     0.11601   0.10230   0.14685   0.00000  Uiso   1.00
C28    C     0.08169   0.20299   0.14683   0.00000  Uiso   1.00
C29    C     0.36967   0.24836   0.00801   0.00000  Uiso   1.00
C30    C     0.36967   0.24836   0.06350   0.00000  Uiso   1.00
C31    C     0.31723   0.27671   0.09134   0.00000  Uiso   1.00
C32    C     0.26895   0.28269   0.00799   0.00000  Uiso   1.00
C33    C     0.26895   0.28269   0.06352   0.00000  Uiso   1.00
C34    C     0.23390   0.26610   0.09135   0.00000  Uiso   1.00
C35    C     0.31722   0.27671   0.14684   0.00000  Uiso   1.00
C36    C     0.21732   0.23104   0.00799   0.00000  Uiso   1.00
C37    C     0.21732   0.23104   0.06352   0.00000  Uiso   1.00
C38    C     0.22331   0.18278   0.09134   0.00000  Uiso   1.00
C39    C     0.23390   0.26610   0.14683   0.00000  Uiso   1.00
C40    C     0.25164   0.13035   0.00801   0.00000  Uiso   1.00
C41    C     0.25164   0.13034   0.06350   0.00000  Uiso   1.00
C42    C     0.29700   0.08498   0.09135   0.00000  Uiso   1.00
C43    C     0.22331   0.18278   0.14684   0.00000  Uiso   1.00
C44    C     0.34944   0.05663   0.00801   0.00000  Uiso   1.00
C45    C     0.34944   0.05663   0.06350   0.00000  Uiso   1.00
C46    C     0.39771   0.05064   0.09132   0.00000  Uiso   1.00
C47    C     0.29700   0.08498   0.14683   0.00000  Uiso   1.00
C48    C     0.43277   0.06723   0.00802   0.00000  Uiso   1.00
C49    C     0.43277   0.06723   0.06350   0.00000  Uiso   1.00
C50    C     0.44934   0.10230   0.09133   0.00000  Uiso   1.00
C51    C     0.39771   0.05064   0.14685   0.00000  Uiso   1.00
C52    C     0.44336   0.15056   0.00801   0.00000  Uiso   1.00
C53    C     0.44336   0.15056   0.06350   0.00000  Uiso   1.00
C54    C     0.41502   0.20299   0.09135   0.00000  Uiso   1.00
C55    C     0.44934   0.10230   0.14685   0.00000  Uiso   1.00
C56    C     0.41502   0.20299   0.14683   0.00000  Uiso   1.00
C57    C     0.70300   0.24836   0.00801   0.00000  Uiso   1.00
C58    C     0.70300   0.24835   0.06350   0.00000  Uiso   1.00
C59    C     0.65056   0.27671   0.09134   0.00000  Uiso   1.00
C60    C     0.60229   0.28269   0.00799   0.00000  Uiso   1.00
C61    C     0.60229   0.28269   0.06352   0.00000  Uiso   1.00
C62    C     0.56723   0.26610   0.09135   0.00000  Uiso   1.00
C63    C     0.65056   0.27671   0.14684   0.00000  Uiso   1.00
C64    C     0.55066   0.23104   0.00799   0.00000  Uiso   1.00
C65    C     0.55066   0.23104   0.06352   0.00000  Uiso   1.00
C66    C     0.55664   0.18278   0.09134   0.00000  Uiso   1.00
C67    C     0.56723   0.26610   0.14683   0.00000  Uiso   1.00
C68    C     0.58498   0.13035   0.00801   0.00000  Uiso   1.00
C69    C     0.58498   0.13034   0.06350   0.00000  Uiso   1.00
C70    C     0.63033   0.08498   0.09135   0.00000  Uiso   1.00
C71    C     0.55664   0.18278   0.14684   0.00000  Uiso   1.00
C72    C     0.68277   0.05663   0.00801   0.00000  Uiso   1.00
C73    C     0.68277   0.05663   0.06350   0.00000  Uiso   1.00
C74    C     0.73104   0.05064   0.09132   0.00000  Uiso   1.00
C75    C     0.63033   0.08498   0.14683   0.00000  Uiso   1.00
C76    C     0.76610   0.06723   0.00802   0.00000  Uiso   1.00
C77    C     0.76610   0.06723   0.06350   0.00000  Uiso   1.00
C78    C     0.78268   0.10230   0.09132   0.00000  Uiso   1.00
C79    C     0.73105   0.05064   0.14685   0.00000  Uiso   1.00
C80    C     0.77669   0.15056   0.00801   0.00000  Uiso   1.00
C81    C     0.77669   0.15056   0.06350   0.00000  Uiso   1.00
C82    C     0.74836   0.20299   0.09134   0.00000  Uiso   1.00
C83    C     0.78268   0.10230   0.14685   0.00000  Uiso   1.00
C84    C     0.74836   0.20299   0.14683   0.00000  Uiso   1.00
C85    C     0.70300   0.58169   0.00801   0.00000  Uiso   1.00
C86    C     0.70300   0.58169   0.06350   0.00000  Uiso   1.00
C87    C     0.65056   0.61004   0.09134   0.00000  Uiso   1.00
C88    C     0.60229   0.61602   0.00799   0.00000  Uiso   1.00
C89    C     0.60229   0.61602   0.06352   0.00000  Uiso   1.00
C90    C     0.56723   0.59943   0.09135   0.00000  Uiso   1.00
C91    C     0.65056   0.61004   0.14684   0.00000  Uiso   1.00
C92    C     0.55066   0.56437   0.00799   0.00000  Uiso   1.00
C93    C     0.55066   0.56437   0.06352   0.00000  Uiso   1.00
C94    C     0.55664   0.51611   0.09134   0.00000  Uiso   1.00
C95    C     0.56723   0.59943   0.14683   0.00000  Uiso   1.00
C96    C     0.58498   0.46368   0.00801   0.00000  Uiso   1.00
C97    C     0.58498   0.46368   0.06350   0.00000  Uiso   1.00
C98    C     0.63033   0.41831   0.09135   0.00000  Uiso   1.00
C99    C     0.55664   0.51611   0.14684   0.00000  Uiso   1.00
C100   C     0.68277   0.38996   0.00801   0.00000  Uiso   1.00
C101   C     0.68277   0.38996   0.06350   0.00000  Uiso   1.00
C102   C     0.73105   0.38397   0.09133   0.00000  Uiso   1.00
C103   C     0.63033   0.41831   0.14683   0.00000  Uiso   1.00
C104   C     0.76610   0.40057   0.00802   0.00000  Uiso   1.00
C105   C     0.76610   0.40057   0.06349   0.00000  Uiso   1.00
C106   C     0.78268   0.43563   0.09133   0.00000  Uiso   1.00
C107   C     0.73105   0.38397   0.14685   0.00000  Uiso   1.00
C108   C     0.77669   0.48389   0.00801   0.00000  Uiso   1.00
C109   C     0.77669   0.48389   0.06350   0.00000  Uiso   1.00
C110   C     0.74836   0.53632   0.09135   0.00000  Uiso   1.00
C111   C     0.78268   0.43563   0.14685   0.00000  Uiso   1.00
C112   C     0.74836   0.53632   0.14683   0.00000  Uiso   1.00
C113   C     0.03633   0.58169   0.00801   0.00000  Uiso   1.00
C114   C     0.03633   0.58169   0.06350   0.00000  Uiso   1.00
C115   C     0.98389   0.61004   0.09134   0.00000  Uiso   1.00
C116   C     0.93562   0.61602   0.00799   0.00000  Uiso   1.00
C117   C     0.93562   0.61602   0.06352   0.00000  Uiso   1.00
C118   C     0.90057   0.59943   0.09135   0.00000  Uiso   1.00
C119   C     0.98389   0.61004   0.14684   0.00000  Uiso   1.00
C120   C     0.88399   0.56437   0.00799   0.00000  Uiso   1.00
C121   C     0.88399   0.56437   0.06352   0.00000  Uiso   1.00
C122   C     0.88997   0.51611   0.09134   0.00000  Uiso   1.00
C123   C     0.90057   0.59943   0.14683   0.00000  Uiso   1.00
C124   C     0.91831   0.46368   0.00801   0.00000  Uiso   1.00
C125   C     0.91831   0.46368   0.06350   0.00000  Uiso   1.00
C126   C     0.96367   0.41831   0.09135   0.00000  Uiso   1.00
C127   C     0.88997   0.51611   0.14684   0.00000  Uiso   1.00
C128   C     0.01611   0.38996   0.00801   0.00000  Uiso   1.00
C129   C     0.01611   0.38996   0.06350   0.00000  Uiso   1.00
C130   C     0.06438   0.38397   0.09133   0.00000  Uiso   1.00
C131   C     0.96367   0.41831   0.14683   0.00000  Uiso   1.00
C132   C     0.09943   0.40057   0.00802   0.00000  Uiso   1.00
C133   C     0.09943   0.40057   0.06350   0.00000  Uiso   1.00
C134   C     0.11601   0.43563   0.09132   0.00000  Uiso   1.00
C135   C     0.06438   0.38397   0.14685   0.00000  Uiso   1.00
C136   C     0.11003   0.48389   0.00801   0.00000  Uiso   1.00
C137   C     0.11003   0.48389   0.06350   0.00000  Uiso   1.00
C138   C     0.08169   0.53632   0.09134   0.00000  Uiso   1.00
C139   C     0.11601   0.43563   0.14685   0.00000  Uiso   1.00
C140   C     0.08169   0.53632   0.14683   0.00000  Uiso   1.00
C141   C     0.36967   0.58169   0.00801   0.00000  Uiso   1.00
C142   C     0.36967   0.58169   0.06350   0.00000  Uiso   1.00
C143   C     0.31723   0.61004   0.09134   0.00000  Uiso   1.00
C144   C     0.26895   0.61602   0.00799   0.00000  Uiso   1.00
C145   C     0.26895   0.61603   0.06352   0.00000  Uiso   1.00
C146   C     0.23390   0.59943   0.09135   0.00000  Uiso   1.00
C147   C     0.31722   0.61004   0.14684   0.00000  Uiso   1.00
C148   C     0.21732   0.56437   0.00799   0.00000  Uiso   1.00
C149   C     0.21732   0.56437   0.06352   0.00000  Uiso   1.00
C150   C     0.22331   0.51611   0.09134   0.00000  Uiso   1.00
C151   C     0.23390   0.59943   0.14683   0.00000  Uiso   1.00
C152   C     0.25164   0.46368   0.00801   0.00000  Uiso   1.00
C153   C     0.25164   0.46368   0.06350   0.00000  Uiso   1.00
C154   C     0.29700   0.41831   0.09134   0.00000  Uiso   1.00
C155   C     0.22331   0.51611   0.14684   0.00000  Uiso   1.00
C156   C     0.34944   0.38996   0.00801   0.00000  Uiso   1.00
C157   C     0.34944   0.38996   0.06350   0.00000  Uiso   1.00
C158   C     0.39771   0.38397   0.09132   0.00000  Uiso   1.00
C159   C     0.29700   0.41831   0.14683   0.00000  Uiso   1.00
C160   C     0.43277   0.40057   0.00802   0.00000  Uiso   1.00
C161   C     0.43277   0.40057   0.06350   0.00000  Uiso   1.00
C162   C     0.44934   0.43563   0.09132   0.00000  Uiso   1.00
C163   C     0.39771   0.38397   0.14685   0.00000  Uiso   1.00
C164   C     0.44336   0.48389   0.00801   0.00000  Uiso   1.00
C165   C     0.44336   0.48389   0.06350   0.00000  Uiso   1.00
C166   C     0.41502   0.53632   0.09135   0.00000  Uiso   1.00
C167   C     0.44934   0.43563   0.14685   0.00000  Uiso   1.00
C168   C     0.41502   0.53632   0.14683   0.00000  Uiso   1.00
C169   C     0.36967   0.91502   0.00801   0.00000  Uiso   1.00
C170   C     0.36967   0.91502   0.06350   0.00000  Uiso   1.00
C171   C     0.31723   0.94337   0.09134   0.00000  Uiso   1.00
C172   C     0.26895   0.94936   0.00799   0.00000  Uiso   1.00
C173   C     0.26895   0.94936   0.06352   0.00000  Uiso   1.00
C174   C     0.23390   0.93277   0.09135   0.00000  Uiso   1.00
C175   C     0.31723   0.94337   0.14684   0.00000  Uiso   1.00
C176   C     0.21732   0.89770   0.00799   0.00000  Uiso   1.00
C177   C     0.21732   0.89770   0.06352   0.00000  Uiso   1.00
C178   C     0.22331   0.84944   0.09134   0.00000  Uiso   1.00
C179   C     0.23390   0.93277   0.14683   0.00000  Uiso   1.00
C180   C     0.25164   0.79701   0.00801   0.00000  Uiso   1.00
C181   C     0.25164   0.79701   0.06350   0.00000  Uiso   1.00
C182   C     0.29700   0.75164   0.09135   0.00000  Uiso   1.00
C183   C     0.22331   0.84944   0.14684   0.00000  Uiso   1.00
C184   C     0.34944   0.72329   0.00801   0.00000  Uiso   1.00
C185   C     0.34944   0.72329   0.06350   0.00000  Uiso   1.00
C186   C     0.39771   0.71731   0.09133   0.00000  Uiso   1.00
C187   C     0.29700   0.75164   0.14683   0.00000  Uiso   1.00
C188   C     0.43277   0.73390   0.00801   0.00000  Uiso   1.00
C189   C     0.43277   0.73390   0.06350   0.00000  Uiso   1.00
C190   C     0.44934   0.76896   0.09133   0.00000  Uiso   1.00
C191   C     0.39771   0.71731   0.14685   0.00000  Uiso   1.00
C192   C     0.44336   0.81722   0.00801   0.00000  Uiso   1.00
C193   C     0.44336   0.81722   0.06350   0.00000  Uiso   1.00
C194   C     0.41502   0.86965   0.09134   0.00000  Uiso   1.00
C195   C     0.44935   0.76896   0.14685   0.00000  Uiso   1.00
C196   C     0.41502   0.86965   0.14683   0.00000  Uiso   1.00
C197   C     0.70300   0.91502   0.00801   0.00000  Uiso   1.00
C198   C     0.70300   0.91502   0.06350   0.00000  Uiso   1.00
C199   C     0.65056   0.94337   0.09134   0.00000  Uiso   1.00
C200   C     0.60229   0.94936   0.00799   0.00000  Uiso   1.00
C201   C     0.60229   0.94936   0.06352   0.00000  Uiso   1.00
C202   C     0.56723   0.93277   0.09135   0.00000  Uiso   1.00
C203   C     0.65056   0.94337   0.14684   0.00000  Uiso   1.00
C204   C     0.55066   0.89770   0.00799   0.00000  Uiso   1.00
C205   C     0.55066   0.89770   0.06352   0.00000  Uiso   1.00
C206   C     0.55664   0.84944   0.09134   0.00000  Uiso   1.00
C207   C     0.56723   0.93277   0.14683   0.00000  Uiso   1.00
C208   C     0.58498   0.79701   0.00801   0.00000  Uiso   1.00
C209   C     0.58498   0.79701   0.06350   0.00000  Uiso   1.00
C210   C     0.63033   0.75164   0.09135   0.00000  Uiso   1.00
C211   C     0.55664   0.84944   0.14684   0.00000  Uiso   1.00
C212   C     0.68277   0.72329   0.00801   0.00000  Uiso   1.00
C213   C     0.68278   0.72329   0.06350   0.00000  Uiso   1.00
C214   C     0.73105   0.71731   0.09133   0.00000  Uiso   1.00
C215   C     0.63033   0.75164   0.14683   0.00000  Uiso   1.00
C216   C     0.76610   0.73390   0.00802   0.00000  Uiso   1.00
C217   C     0.76610   0.73390   0.06350   0.00000  Uiso   1.00
C218   C     0.78268   0.76896   0.09132   0.00000  Uiso   1.00
C219   C     0.73105   0.71731   0.14685   0.00000  Uiso   1.00
C220   C     0.77669   0.81722   0.00801   0.00000  Uiso   1.00
C221   C     0.77669   0.81722   0.06350   0.00000  Uiso   1.00
C222   C     0.74836   0.86965   0.09134   0.00000  Uiso   1.00
C223   C     0.78268   0.76896   0.14685   0.00000  Uiso   1.00
C224   C     0.74836   0.86965   0.14683   0.00000  Uiso   1.00
C225   C     0.03633   0.91502   0.00801   0.00000  Uiso   1.00
C226   C     0.03633   0.91502   0.06350   0.00000  Uiso   1.00
C227   C     0.98389   0.94337   0.09134   0.00000  Uiso   1.00
C228   C     0.93562   0.94936   0.00799   0.00000  Uiso   1.00
C229   C     0.93562   0.94936   0.06352   0.00000  Uiso   1.00
C230   C     0.90057   0.93277   0.09135   0.00000  Uiso   1.00
C231   C     0.98389   0.94337   0.14684   0.00000  Uiso   1.00
C232   C     0.88399   0.89770   0.00799   0.00000  Uiso   1.00
C233   C     0.88399   0.89770   0.06352   0.00000  Uiso   1.00
C234   C     0.88997   0.84944   0.09134   0.00000  Uiso   1.00
C235   C     0.90057   0.93277   0.14683   0.00000  Uiso   1.00
C236   C     0.91831   0.79701   0.00801   0.00000  Uiso   1.00
C237   C     0.91831   0.79701   0.06350   0.00000  Uiso   1.00
C238   C     0.96367   0.75164   0.09135   0.00000  Uiso   1.00
C239   C     0.88997   0.84944   0.14684   0.00000  Uiso   1.00
C240   C     0.01611   0.72329   0.00801   0.00000  Uiso   1.00
C241   C     0.01611   0.72329   0.06350   0.00000  Uiso   1.00
C242   C     0.06438   0.71731   0.09133   0.00000  Uiso   1.00
C243   C     0.96367   0.75164   0.14683   0.00000  Uiso   1.00
C244   C     0.09943   0.73390   0.00802   0.00000  Uiso   1.00
C245   C     0.09943   0.73390   0.06350   0.00000  Uiso   1.00
C246   C     0.11601   0.76896   0.09132   0.00000  Uiso   1.00
C247   C     0.06438   0.71731   0.14685   0.00000  Uiso   1.00
C248   C     0.11003   0.81722   0.00801   0.00000  Uiso   1.00
C249   C     0.11003   0.81722   0.06350   0.00000  Uiso   1.00
C250   C     0.08169   0.86965   0.09135   0.00000  Uiso   1.00
C251   C     0.11601   0.76896   0.14685   0.00000  Uiso   1.00
C252   C     0.08169   0.86965   0.14683   0.00000  Uiso   1.00
C253   C     0.03633   0.24836   0.17468   0.00000  Uiso   1.00
C254   C     0.03633   0.24835   0.23016   0.00000  Uiso   1.00
C255   C     0.98389   0.27671   0.25801   0.00000  Uiso   1.00
C256   C     0.93562   0.28269   0.17466   0.00000  Uiso   1.00
C257   C     0.93562   0.28269   0.23019   0.00000  Uiso   1.00
C258   C     0.90057   0.26610   0.25801   0.00000  Uiso   1.00
C259   C     0.98389   0.27671   0.31350   0.00000  Uiso   1.00
C260   C     0.88399   0.23104   0.17466   0.00000  Uiso   1.00
C261   C     0.88399   0.23103   0.23019   0.00000  Uiso   1.00
C262   C     0.88997   0.18278   0.25801   0.00000  Uiso   1.00
C263   C     0.90057   0.26610   0.31350   0.00000  Uiso   1.00
C264   C     0.91831   0.13034   0.17468   0.00000  Uiso   1.00
C265   C     0.91831   0.13034   0.23017   0.00000  Uiso   1.00
C266   C     0.96367   0.08498   0.25801   0.00000  Uiso   1.00
C267   C     0.88997   0.18278   0.31350   0.00000  Uiso   1.00
C268   C     0.01611   0.05663   0.17468   0.00000  Uiso   1.00
C269   C     0.01611   0.05663   0.23017   0.00000  Uiso   1.00
C270   C     0.06438   0.05064   0.25799   0.00000  Uiso   1.00
C271   C     0.96367   0.08498   0.31350   0.00000  Uiso   1.00
C272   C     0.09943   0.06723   0.17468   0.00000  Uiso   1.00
C273   C     0.09943   0.06723   0.23016   0.00000  Uiso   1.00
C274   C     0.11601   0.10230   0.25799   0.00000  Uiso   1.00
C275   C     0.06438   0.05064   0.31352   0.00000  Uiso   1.00
C276   C     0.11003   0.15056   0.17467   0.00000  Uiso   1.00
C277   C     0.11003   0.15056   0.23017   0.00000  Uiso   1.00
C278   C     0.08169   0.20299   0.25801   0.00000  Uiso   1.00
C279   C     0.11601   0.10230   0.31352   0.00000  Uiso   1.00
C280   C     0.08169   0.20299   0.31350   0.00000  Uiso   1.00
C281   C     0.36967   0.24835   0.17468   0.00000  Uiso   1.00
C282   C     0.36967   0.24835   0.23017   0.00000  Uiso   1.00
C283   C     0.31722   0.27671   0.25801   0.00000  Uiso   1.00
C284   C     0.26895   0.28269   0.17466   0.00000  Uiso   1.00
C285   C     0.26895   0.28269   0.23018   0.00000  Uiso   1.00
C286   C     0.23390   0.26610   0.25802   0.00000  Uiso   1.00
C287   C     0.31723   0.27671   0.31350   0.00000  Uiso   1.00
C288   C     0.21732   0.23104   0.17466   0.00000  Uiso   1.00
C289   C     0.21732   0.23104   0.23018   0.00000  Uiso   1.00
C290   C     0.22331   0.18278   0.25801   0.00000  Uiso   1.00
C291   C     0.23390   0.26610   0.31350   0.00000  Uiso   1.00
C292   C     0.25164   0.13034   0.17468   0.00000  Uiso   1.00
C293   C     0.25164   0.13034   0.23017   0.00000  Uiso   1.00
C294   C     0.29700   0.08498   0.25801   0.00000  Uiso   1.00
C295   C     0.22331   0.18278   0.31350   0.00000  Uiso   1.00
C296   C     0.34944   0.05663   0.17467   0.00000  Uiso   1.00
C297   C     0.34944   0.05663   0.23017   0.00000  Uiso   1.00
C298   C     0.39771   0.05064   0.25799   0.00000  Uiso   1.00
C299   C     0.29700   0.08498   0.31350   0.00000  Uiso   1.00
C300   C     0.43277   0.06723   0.17468   0.00000  Uiso   1.00
C301   C     0.43277   0.06723   0.23016   0.00000  Uiso   1.00
C302   C     0.44934   0.10230   0.25799   0.00000  Uiso   1.00
C303   C     0.39771   0.05064   0.31352   0.00000  Uiso   1.00
C304   C     0.44336   0.15056   0.17467   0.00000  Uiso   1.00
C305   C     0.44336   0.15056   0.23017   0.00000  Uiso   1.00
C306   C     0.41502   0.20299   0.25801   0.00000  Uiso   1.00
C307   C     0.44934   0.10230   0.31352   0.00000  Uiso   1.00
C308   C     0.41502   0.20299   0.31350   0.00000  Uiso   1.00
C309   C     0.70300   0.24836   0.17468   0.00000  Uiso   1.00
C310   C     0.70300   0.24835   0.23016   0.00000  Uiso   1.00
C311   C     0.65056   0.27671   0.25801   0.00000  Uiso   1.00
C312   C     0.60229   0.28269   0.17466   0.00000  Uiso   1.00
C313   C     0.60229   0.28269   0.23019   0.00000  Uiso   1.00
C314   C     0.56723   0.26610   0.25802   0.00000  Uiso   1.00
C315   C     0.65056   0.27671   0.31350   0.00000  Uiso   1.00
C316   C     0.55066   0.23104   0.17466   0.00000  Uiso   1.00
C317   C     0.55066   0.23104   0.23019   0.00000  Uiso   1.00
C318   C     0.55664   0.18278   0.25801   0.00000  Uiso   1.00
C319   C     0.56723   0.26610   0.31349   0.00000  Uiso   1.00
C320   C     0.58498   0.13035   0.17468   0.00000  Uiso   1.00
C321   C     0.58498   0.13034   0.23017   0.00000  Uiso   1.00
C322   C     0.63033   0.08498   0.25801   0.00000  Uiso   1.00
C323   C     0.55664   0.18278   0.31350   0.00000  Uiso   1.00
C324   C     0.68277   0.05663   0.17468   0.00000  Uiso   1.00
C325   C     0.68277   0.05663   0.23017   0.00000  Uiso   1.00
C326   C     0.73104   0.05064   0.25799   0.00000  Uiso   1.00
C327   C     0.63033   0.08498   0.31350   0.00000  Uiso   1.00
C328   C     0.76610   0.06723   0.17468   0.00000  Uiso   1.00
C329   C     0.76610   0.06723   0.23016   0.00000  Uiso   1.00
C330   C     0.78268   0.10230   0.25799   0.00000  Uiso   1.00
C331   C     0.73105   0.05064   0.31352   0.00000  Uiso   1.00
C332   C     0.77669   0.15056   0.17468   0.00000  Uiso   1.00
C333   C     0.77669   0.15056   0.23017   0.00000  Uiso   1.00
C334   C     0.74836   0.20299   0.25801   0.00000  Uiso   1.00
C335   C     0.78268   0.10230   0.31352   0.00000  Uiso   1.00
C336   C     0.74836   0.20299   0.31350   0.00000  Uiso   1.00
C337   C     0.70300   0.58169   0.17468   0.00000  Uiso   1.00
C338   C     0.70300   0.58169   0.23017   0.00000  Uiso   1.00
C339   C     0.65056   0.61004   0.25801   0.00000  Uiso   1.00
C340   C     0.60229   0.61602   0.17466   0.00000  Uiso   1.00
C341   C     0.60229   0.61602   0.23019   0.00000  Uiso   1.00
C342   C     0.56723   0.59943   0.25801   0.00000  Uiso   1.00
C343   C     0.65056   0.61004   0.31350   0.00000  Uiso   1.00
C344   C     0.55066   0.56437   0.17466   0.00000  Uiso   1.00
C345   C     0.55066   0.56437   0.23019   0.00000  Uiso   1.00
C346   C     0.55664   0.51611   0.25801   0.00000  Uiso   1.00
C347   C     0.56723   0.59943   0.31350   0.00000  Uiso   1.00
C348   C     0.58498   0.46368   0.17468   0.00000  Uiso   1.00
C349   C     0.58498   0.46368   0.23017   0.00000  Uiso   1.00
C350   C     0.63033   0.41831   0.25801   0.00000  Uiso   1.00
C351   C     0.55664   0.51611   0.31350   0.00000  Uiso   1.00
C352   C     0.68277   0.38996   0.17467   0.00000  Uiso   1.00
C353   C     0.68277   0.38996   0.23017   0.00000  Uiso   1.00
C354   C     0.73105   0.38397   0.25799   0.00000  Uiso   1.00
C355   C     0.63033   0.41831   0.31350   0.00000  Uiso   1.00
C356   C     0.76610   0.40057   0.17468   0.00000  Uiso   1.00
C357   C     0.76610   0.40057   0.23016   0.00000  Uiso   1.00
C358   C     0.78268   0.43563   0.25799   0.00000  Uiso   1.00
C359   C     0.73105   0.38397   0.31352   0.00000  Uiso   1.00
C360   C     0.77669   0.48389   0.17468   0.00000  Uiso   1.00
C361   C     0.77669   0.48389   0.23017   0.00000  Uiso   1.00
C362   C     0.74836   0.53632   0.25801   0.00000  Uiso   1.00
C363   C     0.78268   0.43563   0.31352   0.00000  Uiso   1.00
C364   C     0.74836   0.53632   0.31350   0.00000  Uiso   1.00
C365   C     0.03633   0.58169   0.17468   0.00000  Uiso   1.00
C366   C     0.03633   0.58169   0.23016   0.00000  Uiso   1.00
C367   C     0.98389   0.61004   0.25801   0.00000  Uiso   1.00
C368   C     0.93562   0.61602   0.17466   0.00000  Uiso   1.00
C369   C     0.93562   0.61602   0.23019   0.00000  Uiso   1.00
C370   C     0.90056   0.59943   0.25802   0.00000  Uiso   1.00
C371   C     0.98389   0.61004   0.31350   0.00000  Uiso   1.00
C372   C     0.88399   0.56437   0.17466   0.00000  Uiso   1.00
C373   C     0.88399   0.56437   0.23019   0.00000  Uiso   1.00
C374   C     0.88997   0.51611   0.25801   0.00000  Uiso   1.00
C375   C     0.90057   0.59943   0.31350   0.00000  Uiso   1.00
C376   C     0.91831   0.46368   0.17468   0.00000  Uiso   1.00
C377   C     0.91831   0.46368   0.23017   0.00000  Uiso   1.00
C378   C     0.96367   0.41831   0.25801   0.00000  Uiso   1.00
C379   C     0.88997   0.51611   0.31350   0.00000  Uiso   1.00
C380   C     0.01611   0.38996   0.17468   0.00000  Uiso   1.00
C381   C     0.01611   0.38996   0.23017   0.00000  Uiso   1.00
C382   C     0.06438   0.38397   0.25799   0.00000  Uiso   1.00
C383   C     0.96367   0.41831   0.31350   0.00000  Uiso   1.00
C384   C     0.09943   0.40057   0.17468   0.00000  Uiso   1.00
C385   C     0.09943   0.40057   0.23016   0.00000  Uiso   1.00
C386   C     0.11601   0.43563   0.25799   0.00000  Uiso   1.00
C387   C     0.06438   0.38397   0.31352   0.00000  Uiso   1.00
C388   C     0.11003   0.48389   0.17467   0.00000  Uiso   1.00
C389   C     0.11003   0.48389   0.23017   0.00000  Uiso   1.00
C390   C     0.08169   0.53632   0.25801   0.00000  Uiso   1.00
C391   C     0.11601   0.43563   0.31352   0.00000  Uiso   1.00
C392   C     0.08169   0.53632   0.31350   0.00000  Uiso   1.00
C393   C     0.36967   0.58169   0.17468   0.00000  Uiso   1.00
C394   C     0.36967   0.58169   0.23016   0.00000  Uiso   1.00
C395   C     0.31723   0.61004   0.25801   0.00000  Uiso   1.00
C396   C     0.26896   0.61602   0.17466   0.00000  Uiso   1.00
C397   C     0.26895   0.61602   0.23019   0.00000  Uiso   1.00
C398   C     0.23390   0.59943   0.25802   0.00000  Uiso   1.00
C399   C     0.31723   0.61004   0.31350   0.00000  Uiso   1.00
C400   C     0.21732   0.56437   0.17466   0.00000  Uiso   1.00
C401   C     0.21732   0.56437   0.23019   0.00000  Uiso   1.00
C402   C     0.22331   0.51611   0.25801   0.00000  Uiso   1.00
C403   C     0.23390   0.59943   0.31349   0.00000  Uiso   1.00
C404   C     0.25164   0.46368   0.17468   0.00000  Uiso   1.00
C405   C     0.25164   0.46368   0.23017   0.00000  Uiso   1.00
C406   C     0.29700   0.41831   0.25801   0.00000  Uiso   1.00
C407   C     0.22331   0.51611   0.31350   0.00000  Uiso   1.00
C408   C     0.34944   0.38996   0.17468   0.00000  Uiso   1.00
C409   C     0.34944   0.38996   0.23017   0.00000  Uiso   1.00
C410   C     0.39771   0.38397   0.25799   0.00000  Uiso   1.00
C411   C     0.29700   0.41831   0.31350   0.00000  Uiso   1.00
C412   C     0.43277   0.40057   0.17468   0.00000  Uiso   1.00
C413   C     0.43277   0.40057   0.23016   0.00000  Uiso   1.00
C414   C     0.44934   0.43563   0.25799   0.00000  Uiso   1.00
C415   C     0.39771   0.38397   0.31352   0.00000  Uiso   1.00
C416   C     0.44336   0.48389   0.17467   0.00000  Uiso   1.00
C417   C     0.44336   0.48389   0.23017   0.00000  Uiso   1.00
C418   C     0.41503   0.53632   0.25801   0.00000  Uiso   1.00
C419   C     0.44934   0.43563   0.31352   0.00000  Uiso   1.00
C420   C     0.41502   0.53632   0.31350   0.00000  Uiso   1.00
C421   C     0.36967   0.91502   0.17468   0.00000  Uiso   1.00
C422   C     0.36967   0.91502   0.23017   0.00000  Uiso   1.00
C423   C     0.31723   0.94337   0.25801   0.00000  Uiso   1.00
C424   C     0.26895   0.94936   0.17466   0.00000  Uiso   1.00
C425   C     0.26896   0.94936   0.23019   0.00000  Uiso   1.00
C426   C     0.23390   0.93277   0.25801   0.00000  Uiso   1.00
C427   C     0.31723   0.94337   0.31350   0.00000  Uiso   1.00
C428   C     0.21732   0.89770   0.17466   0.00000  Uiso   1.00
C429   C     0.21732   0.89770   0.23019   0.00000  Uiso   1.00
C430   C     0.22331   0.84944   0.25801   0.00000  Uiso   1.00
C431   C     0.23390   0.93277   0.31349   0.00000  Uiso   1.00
C432   C     0.25164   0.79701   0.17468   0.00000  Uiso   1.00
C433   C     0.25164   0.79701   0.23017   0.00000  Uiso   1.00
C434   C     0.29700   0.75164   0.25801   0.00000  Uiso   1.00
C435   C     0.22331   0.84944   0.31350   0.00000  Uiso   1.00
C436   C     0.34944   0.72329   0.17468   0.00000  Uiso   1.00
C437   C     0.34944   0.72329   0.23017   0.00000  Uiso   1.00
C438   C     0.39771   0.71731   0.25799   0.00000  Uiso   1.00
C439   C     0.29700   0.75164   0.31350   0.00000  Uiso   1.00
C440   C     0.43277   0.73390   0.17468   0.00000  Uiso   1.00
C441   C     0.43277   0.73390   0.23016   0.00000  Uiso   1.00
C442   C     0.44934   0.76896   0.25799   0.00000  Uiso   1.00
C443   C     0.39771   0.71731   0.31352   0.00000  Uiso   1.00
C444   C     0.44336   0.81722   0.17467   0.00000  Uiso   1.00
C445   C     0.44336   0.81722   0.23017   0.00000  Uiso   1.00
C446   C     0.41503   0.86965   0.25801   0.00000  Uiso   1.00
C447   C     0.44935   0.76896   0.31352   0.00000  Uiso   1.00
C448   C     0.41503   0.86965   0.31350   0.00000  Uiso   1.00
C449   C     0.70300   0.91502   0.17468   0.00000  Uiso   1.00
C450   C     0.70300   0.91502   0.23016   0.00000  Uiso   1.00
C451   C     0.65056   0.94337   0.25801   0.00000  Uiso   1.00
C452   C     0.60229   0.94936   0.17466   0.00000  Uiso   1.00
C453   C     0.60229   0.94936   0.23019   0.00000  Uiso   1.00
C454   C     0.56723   0.93277   0.25801   0.00000  Uiso   1.00
C455   C     0.65056   0.94337   0.31350   0.00000  Uiso   1.00
C456   C     0.55066   0.89770   0.17466   0.00000  Uiso   1.00
C457   C     0.55066   0.89770   0.23019   0.00000  Uiso   1.00
C458   C     0.55664   0.84944   0.25801   0.00000  Uiso   1.00
C459   C     0.56723   0.93276   0.31350   0.00000  Uiso   1.00
C460   C     0.58498   0.79701   0.17468   0.00000  Uiso   1.00
C461   C     0.58498   0.79701   0.23017   0.00000  Uiso   1.00
C462   C     0.63033   0.75164   0.25801   0.00000  Uiso   1.00
C463   C     0.55664   0.84944   0.31350   0.00000  Uiso   1.00
C464   C     0.68277   0.72329   0.17468   0.00000  Uiso   1.00
C465   C     0.68277   0.72329   0.23017   0.00000  Uiso   1.00
C466   C     0.73105   0.71731   0.25799   0.00000  Uiso   1.00
C467   C     0.63033   0.75164   0.31350   0.00000  Uiso   1.00
C468   C     0.76610   0.73390   0.17468   0.00000  Uiso   1.00
C469   C     0.76610   0.73390   0.23016   0.00000  Uiso   1.00
C470   C     0.78268   0.76896   0.25799   0.00000  Uiso   1.00
C471   C     0.73105   0.71731   0.31352   0.00000  Uiso   1.00
C472   C     0.77669   0.81722   0.17467   0.00000  Uiso   1.00
C473   C     0.77669   0.81722   0.23017   0.00000  Uiso   1.00
C474   C     0.74836   0.86965   0.25801   0.00000  Uiso   1.00
C475   C     0.78268   0.76896   0.31352   0.00000  Uiso   1.00
C476   C     0.74836   0.86965   0.31350   0.00000  Uiso   1.00
C477   C     0.03633   0.91502   0.17468   0.00000  Uiso   1.00
C478   C     0.03633   0.91502   0.23016   0.00000  Uiso   1.00
C479   C     0.98389   0.94337   0.25801   0.00000  Uiso   1.00
C480   C     0.93562   0.94936   0.17466   0.00000  Uiso   1.00
C481   C     0.93562   0.94936   0.23019   0.00000  Uiso   1.00
C482   C     0.90057   0.93276   0.25802   0.00000  Uiso   1.00
C483   C     0.98389   0.94337   0.31350   0.00000  Uiso   1.00
C484   C     0.88399   0.89770   0.17466   0.00000  Uiso   1.00
C485   C     0.88399   0.89770   0.23019   0.00000  Uiso   1.00
C486   C     0.88997   0.84944   0.25801   0.00000  Uiso   1.00
C487   C     0.90057   0.93277   0.31350   0.00000  Uiso   1.00
C488   C     0.91831   0.79701   0.17468   0.00000  Uiso   1.00
C489   C     0.91831   0.79701   0.23017   0.00000  Uiso   1.00
C490   C     0.96367   0.75164   0.25801   0.00000  Uiso   1.00
C491   C     0.88997   0.84944   0.31350   0.00000  Uiso   1.00
C492   C     0.01611   0.72329   0.17468   0.00000  Uiso   1.00
C493   C     0.01611   0.72329   0.23017   0.00000  Uiso   1.00
C494   C     0.06438   0.71731   0.25799   0.00000  Uiso   1.00
C495   C     0.96367   0.75164   0.31350   0.00000  Uiso   1.00
C496   C     0.09943   0.73390   0.17468   0.00000  Uiso   1.00
C497   C     0.09943   0.73390   0.23016   0.00000  Uiso   1.00
C498   C     0.11601   0.76896   0.25799   0.00000  Uiso   1.00
C499   C     0.06438   0.71731   0.31352   0.00000  Uiso   1.00
C500   C     0.11003   0.81722   0.17467   0.00000  Uiso   1.00
C501   C     0.11003   0.81722   0.23017   0.00000  Uiso   1.00
C502   C     0.08169   0.86965   0.25801   0.00000  Uiso   1.00
C503   C     0.11601   0.76896   0.31352   0.00000  Uiso   1.00
C504   C     0.08169   0.86965   0.31350   0.00000  Uiso   1.00
C505   C     0.03633   0.24836   0.34134   0.00000  Uiso   1.00
C506   C     0.03633   0.24836   0.39683   0.00000  Uiso   1.00
C507   C     0.98389   0.27671   0.42467   0.00000  Uiso   1.00
C508   C     0.93562   0.28269   0.34132   0.00000  Uiso   1.00
C509   C     0.93562   0.28269   0.39685   0.00000  Uiso   1.00
C510   C     0.90057   0.26610   0.42468   0.00000  Uiso   1.00
C511   C     0.98389   0.27671   0.48017   0.00000  Uiso   1.00
C512   C     0.88399   0.23104   0.34133   0.00000  Uiso   1.00
C513   C     0.88399   0.23104   0.39685   0.00000  Uiso   1.00
C514   C     0.88998   0.18278   0.42467   0.00000  Uiso   1.00
C515   C     0.90057   0.26610   0.48016   0.00000  Uiso   1.00
C516   C     0.91831   0.13034   0.34135   0.00000  Uiso   1.00
C517   C     0.91831   0.13034   0.39683   0.00000  Uiso   1.00
C518   C     0.96367   0.08498   0.42468   0.00000  Uiso   1.00
C519   C     0.88997   0.18278   0.48017   0.00000  Uiso   1.00
C520   C     0.01611   0.05663   0.34134   0.00000  Uiso   1.00
C521   C     0.01611   0.05663   0.39684   0.00000  Uiso   1.00
C522   C     0.06438   0.05064   0.42466   0.00000  Uiso   1.00
C523   C     0.96367   0.08498   0.48017   0.00000  Uiso   1.00
C524   C     0.09943   0.06723   0.34135   0.00000  Uiso   1.00
C525   C     0.09943   0.06723   0.39683   0.00000  Uiso   1.00
C526   C     0.11601   0.10230   0.42466   0.00000  Uiso   1.00
C527   C     0.06438   0.05064   0.48019   0.00000  Uiso   1.00
C528   C     0.11003   0.15056   0.34134   0.00000  Uiso   1.00
C529   C     0.11003   0.15056   0.39684   0.00000  Uiso   1.00
C530   C     0.08169   0.20299   0.42468   0.00000  Uiso   1.00
C531   C     0.11601   0.10230   0.48018   0.00000  Uiso   1.00
C532   C     0.08169   0.20299   0.48016   0.00000  Uiso   1.00
C533   C     0.36967   0.24836   0.34134   0.00000  Uiso   1.00
C534   C     0.36967   0.24836   0.39683   0.00000  Uiso   1.00
C535   C     0.31723   0.27671   0.42467   0.00000  Uiso   1.00
C536   C     0.26895   0.28269   0.34132   0.00000  Uiso   1.00
C537   C     0.26895   0.28269   0.39685   0.00000  Uiso   1.00
C538   C     0.23390   0.26610   0.42468   0.00000  Uiso   1.00
C539   C     0.31723   0.27671   0.48017   0.00000  Uiso   1.00
C540   C     0.21732   0.23104   0.34132   0.00000  Uiso   1.00
C541   C     0.21732   0.23104   0.39685   0.00000  Uiso   1.00
C542   C     0.22331   0.18278   0.42467   0.00000  Uiso   1.00
C543   C     0.23390   0.26610   0.48016   0.00000  Uiso   1.00
C544   C     0.25164   0.13035   0.34134   0.00000  Uiso   1.00
C545   C     0.25164   0.13034   0.39683   0.00000  Uiso   1.00
C546   C     0.29700   0.08498   0.42468   0.00000  Uiso   1.00
C547   C     0.22331   0.18278   0.48017   0.00000  Uiso   1.00
C548   C     0.34944   0.05663   0.34134   0.00000  Uiso   1.00
C549   C     0.34944   0.05663   0.39684   0.00000  Uiso   1.00
C550   C     0.39771   0.05064   0.42466   0.00000  Uiso   1.00
C551   C     0.29700   0.08498   0.48016   0.00000  Uiso   1.00
C552   C     0.43277   0.06723   0.34135   0.00000  Uiso   1.00
C553   C     0.43277   0.06723   0.39683   0.00000  Uiso   1.00
C554   C     0.44934   0.10230   0.42466   0.00000  Uiso   1.00
C555   C     0.39771   0.05064   0.48019   0.00000  Uiso   1.00
C556   C     0.44336   0.15056   0.34134   0.00000  Uiso   1.00
C557   C     0.44336   0.15056   0.39684   0.00000  Uiso   1.00
C558   C     0.41502   0.20299   0.42468   0.00000  Uiso   1.00
C559   C     0.44934   0.10230   0.48019   0.00000  Uiso   1.00
C560   C     0.41502   0.20299   0.48016   0.00000  Uiso   1.00
C561   C     0.70300   0.24836   0.34135   0.00000  Uiso   1.00
C562   C     0.70300   0.24835   0.39683   0.00000  Uiso   1.00
C563   C     0.65056   0.27671   0.42467   0.00000  Uiso   1.00
C564   C     0.60229   0.28269   0.34132   0.00000  Uiso   1.00
C565   C     0.60229   0.28269   0.39685   0.00000  Uiso   1.00
C566   C     0.56723   0.26610   0.42468   0.00000  Uiso   1.00
C567   C     0.65056   0.27671   0.48017   0.00000  Uiso   1.00
C568   C     0.55066   0.23104   0.34132   0.00000  Uiso   1.00
C569   C     0.55066   0.23103   0.39685   0.00000  Uiso   1.00
C570   C     0.55664   0.18278   0.42467   0.00000  Uiso   1.00
C571   C     0.56723   0.26610   0.48016   0.00000  Uiso   1.00
C572   C     0.58498   0.13035   0.34135   0.00000  Uiso   1.00
C573   C     0.58498   0.13034   0.39683   0.00000  Uiso   1.00
C574   C     0.63033   0.08498   0.42468   0.00000  Uiso   1.00
C575   C     0.55664   0.18278   0.48017   0.00000  Uiso   1.00
C576   C     0.68277   0.05663   0.34134   0.00000  Uiso   1.00
C577   C     0.68277   0.05663   0.39684   0.00000  Uiso   1.00
C578   C     0.73105   0.05064   0.42466   0.00000  Uiso   1.00
C579   C     0.63033   0.08498   0.48017   0.00000  Uiso   1.00
C580   C     0.76610   0.06723   0.34135   0.00000  Uiso   1.00
C581   C     0.76610   0.06723   0.39683   0.00000  Uiso   1.00
C582   C     0.78268   0.10230   0.42466   0.00000  Uiso   1.00
C583   C     0.73105   0.05064   0.48019   0.00000  Uiso   1.00
C584   C     0.77669   0.15056   0.34134   0.00000  Uiso   1.00
C585   C     0.77669   0.15056   0.39684   0.00000  Uiso   1.00
C586   C     0.74836   0.20299   0.42468   0.00000  Uiso   1.00
C587   C     0.78268   0.10230   0.48019   0.00000  Uiso   1.00
C588   C     0.74836   0.20299   0.48016   0.00000  Uiso   1.00
C589   C     0.70300   0.58169   0.34135   0.00000  Uiso   1.00
C590   C     0.70300   0.58169   0.39683   0.00000  Uiso   1.00
C591   C     0.65056   0.61004   0.42467   0.00000  Uiso   1.00
C592   C     0.60229   0.61602   0.34132   0.00000  Uiso   1.00
C593   C     0.60229   0.61602   0.39685   0.00000  Uiso   1.00
C594   C     0.56723   0.59943   0.42468   0.00000  Uiso   1.00
C595   C     0.65056   0.61004   0.48017   0.00000  Uiso   1.00
C596   C     0.55066   0.56437   0.34132   0.00000  Uiso   1.00
C597   C     0.55066   0.56437   0.39685   0.00000  Uiso   1.00
C598   C     0.55664   0.51611   0.42467   0.00000  Uiso   1.00
C599   C     0.56723   0.59943   0.48016   0.00000  Uiso   1.00
C600   C     0.58498   0.46368   0.34135   0.00000  Uiso   1.00
C601   C     0.58498   0.46368   0.39683   0.00000  Uiso   1.00
C602   C     0.63033   0.41831   0.42468   0.00000  Uiso   1.00
C603   C     0.55664   0.51611   0.48017   0.00000  Uiso   1.00
C604   C     0.68278   0.38996   0.34134   0.00000  Uiso   1.00
C605   C     0.68278   0.38996   0.39684   0.00000  Uiso   1.00
C606   C     0.73105   0.38397   0.42466   0.00000  Uiso   1.00
C607   C     0.63033   0.41831   0.48017   0.00000  Uiso   1.00
C608   C     0.76610   0.40057   0.34135   0.00000  Uiso   1.00
C609   C     0.76610   0.40057   0.39683   0.00000  Uiso   1.00
C610   C     0.78268   0.43563   0.42466   0.00000  Uiso   1.00
C611   C     0.73105   0.38397   0.48019   0.00000  Uiso   1.00
C612   C     0.77669   0.48389   0.34134   0.00000  Uiso   1.00
C613   C     0.77669   0.48389   0.39684   0.00000  Uiso   1.00
C614   C     0.74836   0.53632   0.42468   0.00000  Uiso   1.00
C615   C     0.78268   0.43563   0.48019   0.00000  Uiso   1.00
C616   C     0.74836   0.53632   0.48016   0.00000  Uiso   1.00
C617   C     0.03633   0.58169   0.34134   0.00000  Uiso   1.00
C618   C     0.03633   0.58169   0.39683   0.00000  Uiso   1.00
C619   C     0.98389   0.61004   0.42467   0.00000  Uiso   1.00
C620   C     0.93562   0.61602   0.34132   0.00000  Uiso   1.00
C621   C     0.93562   0.61602   0.39685   0.00000  Uiso   1.00
C622   C     0.90057   0.59943   0.42468   0.00000  Uiso   1.00
C623   C     0.98389   0.61004   0.48017   0.00000  Uiso   1.00
C624   C     0.88399   0.56437   0.34132   0.00000  Uiso   1.00
C625   C     0.88399   0.56437   0.39685   0.00000  Uiso   1.00
C626   C     0.88998   0.51611   0.42467   0.00000  Uiso   1.00
C627   C     0.90057   0.59943   0.48016   0.00000  Uiso   1.00
C628   C     0.91831   0.46368   0.34135   0.00000  Uiso   1.00
C629   C     0.91831   0.46368   0.39683   0.00000  Uiso   1.00
C630   C     0.96367   0.41831   0.42468   0.00000  Uiso   1.00
C631   C     0.88997   0.51611   0.48017   0.00000  Uiso   1.00
C632   C     0.01611   0.38996   0.34134   0.00000  Uiso   1.00
C633   C     0.01611   0.38996   0.39684   0.00000  Uiso   1.00
C634   C     0.06438   0.38397   0.42466   0.00000  Uiso   1.00
C635   C     0.96367   0.41831   0.48017   0.00000  Uiso   1.00
C636   C     0.09943   0.40057   0.34135   0.00000  Uiso   1.00
C637   C     0.09943   0.40057   0.39683   0.00000  Uiso   1.00
C638   C     0.11601   0.43563   0.42466   0.00000  Uiso   1.00
C639   C     0.06438   0.38397   0.48019   0.00000  Uiso   1.00
C640   C     0.11003   0.48389   0.34134   0.00000  Uiso   1.00
C641   C     0.11003   0.48389   0.39684   0.00000  Uiso   1.00
C642   C     0.08169   0.53632   0.42468   0.00000  Uiso   1.00
C643   C     0.11601   0.43563   0.48018   0.00000  Uiso   1.00
C644   C     0.08169   0.53632   0.48016   0.00000  Uiso   1.00
C645   C     0.36967   0.58169   0.34134   0.00000  Uiso   1.00
C646   C     0.36967   0.58169   0.39683   0.00000  Uiso   1.00
C647   C     0.31722   0.61004   0.42467   0.00000  Uiso   1.00
C648   C     0.26895   0.61602   0.34132   0.00000  Uiso   1.00
C649   C     0.26896   0.61602   0.39685   0.00000  Uiso   1.00
C650   C     0.23390   0.59943   0.42468   0.00000  Uiso   1.00
C651   C     0.31723   0.61004   0.48017   0.00000  Uiso   1.00
C652   C     0.21732   0.56437   0.34132   0.00000  Uiso   1.00
C653   C     0.21732   0.56437   0.39685   0.00000  Uiso   1.00
C654   C     0.22331   0.51611   0.42467   0.00000  Uiso   1.00
C655   C     0.23390   0.59943   0.48016   0.00000  Uiso   1.00
C656   C     0.25164   0.46368   0.34135   0.00000  Uiso   1.00
C657   C     0.25164   0.46368   0.39683   0.00000  Uiso   1.00
C658   C     0.29700   0.41831   0.42468   0.00000  Uiso   1.00
C659   C     0.22331   0.51611   0.48017   0.00000  Uiso   1.00
C660   C     0.34944   0.38996   0.34134   0.00000  Uiso   1.00
C661   C     0.34944   0.38996   0.39684   0.00000  Uiso   1.00
C662   C     0.39771   0.38397   0.42466   0.00000  Uiso   1.00
C663   C     0.29700   0.41831   0.48017   0.00000  Uiso   1.00
C664   C     0.43277   0.40057   0.34135   0.00000  Uiso   1.00
C665   C     0.43277   0.40057   0.39683   0.00000  Uiso   1.00
C666   C     0.44934   0.43563   0.42466   0.00000  Uiso   1.00
C667   C     0.39771   0.38397   0.48019   0.00000  Uiso   1.00
C668   C     0.44336   0.48389   0.34134   0.00000  Uiso   1.00
C669   C     0.44336   0.48389   0.39684   0.00000  Uiso   1.00
C670   C     0.41502   0.53632   0.42468   0.00000  Uiso   1.00
C671   C     0.44934   0.43563   0.48019   0.00000  Uiso   1.00
C672   C     0.41502   0.53632   0.48017   0.00000  Uiso   1.00
C673   C     0.36967   0.91502   0.34135   0.00000  Uiso   1.00
C674   C     0.36967   0.91502   0.39683   0.00000  Uiso   1.00
C675   C     0.31723   0.94337   0.42467   0.00000  Uiso   1.00
C676   C     0.26895   0.94936   0.34132   0.00000  Uiso   1.00
C677   C     0.26896   0.94936   0.39685   0.00000  Uiso   1.00
C678   C     0.23390   0.93276   0.42468   0.00000  Uiso   1.00
C679   C     0.31723   0.94337   0.48017   0.00000  Uiso   1.00
C680   C     0.21732   0.89770   0.34133   0.00000  Uiso   1.00
C681   C     0.21732   0.89770   0.39685   0.00000  Uiso   1.00
C682   C     0.22331   0.84944   0.42467   0.00000  Uiso   1.00
C683   C     0.23390   0.93277   0.48016   0.00000  Uiso   1.00
C684   C     0.25164   0.79701   0.34135   0.00000  Uiso   1.00
C685   C     0.25164   0.79701   0.39683   0.00000  Uiso   1.00
C686   C     0.29700   0.75164   0.42468   0.00000  Uiso   1.00
C687   C     0.22331   0.84944   0.48017   0.00000  Uiso   1.00
C688   C     0.34944   0.72329   0.34134   0.00000  Uiso   1.00
C689   C     0.34944   0.72329   0.39684   0.00000  Uiso   1.00
C690   C     0.39771   0.71731   0.42466   0.00000  Uiso   1.00
C691   C     0.29700   0.75164   0.48017   0.00000  Uiso   1.00
C692   C     0.43277   0.73390   0.34135   0.00000  Uiso   1.00
C693   C     0.43277   0.73390   0.39683   0.00000  Uiso   1.00
C694   C     0.44935   0.76896   0.42466   0.00000  Uiso   1.00
C695   C     0.39771   0.71731   0.48019   0.00000  Uiso   1.00
C696   C     0.44336   0.81722   0.34134   0.00000  Uiso   1.00
C697   C     0.44336   0.81722   0.39684   0.00000  Uiso   1.00
C698   C     0.41502   0.86965   0.42468   0.00000  Uiso   1.00
C699   C     0.44934   0.76896   0.48019   0.00000  Uiso   1.00
C700   C     0.41502   0.86965   0.48017   0.00000  Uiso   1.00
C701   C     0.70300   0.91502   0.34134   0.00000  Uiso   1.00
C702   C     0.70300   0.91502   0.39683   0.00000  Uiso   1.00
C703   C     0.65056   0.94337   0.42467   0.00000  Uiso   1.00
C704   C     0.60229   0.94936   0.34132   0.00000  Uiso   1.00
C705   C     0.60229   0.94936   0.39685   0.00000  Uiso   1.00
C706   C     0.56723   0.93277   0.42468   0.00000  Uiso   1.00
C707   C     0.65056   0.94337   0.48017   0.00000  Uiso   1.00
C708   C     0.55066   0.89770   0.34132   0.00000  Uiso   1.00
C709   C     0.55066   0.89770   0.39685   0.00000  Uiso   1.00
C710   C     0.55664   0.84944   0.42467   0.00000  Uiso   1.00
C711   C     0.56723   0.93276   0.48016   0.00000  Uiso   1.00
C712   C     0.58498   0.79701   0.34135   0.00000  Uiso   1.00
C713   C     0.58498   0.79701   0.39683   0.00000  Uiso   1.00
C714   C     0.63033   0.75164   0.42468   0.00000  Uiso   1.00
C715   C     0.55664   0.84944   0.48017   0.00000  Uiso   1.00
C716   C     0.68278   0.72329   0.34134   0.00000  Uiso   1.00
C717   C     0.68277   0.72329   0.39684   0.00000  Uiso   1.00
C718   C     0.73105   0.71731   0.42466   0.00000  Uiso   1.00
C719   C     0.63034   0.75164   0.48017   0.00000  Uiso   1.00
C720   C     0.76610   0.73390   0.34135   0.00000  Uiso   1.00
C721   C     0.76610   0.73390   0.39683   0.00000  Uiso   1.00
C722   C     0.78268   0.76896   0.42466   0.00000  Uiso   1.00
C723   C     0.73104   0.71731   0.48019   0.00000  Uiso   1.00
C724   C     0.77669   0.81722   0.34134   0.00000  Uiso   1.00
C725   C     0.77669   0.81722   0.39684   0.00000  Uiso   1.00
C726   C     0.74836   0.86965   0.42468   0.00000  Uiso   1.00
C727   C     0.78268   0.76896   0.48019   0.00000  Uiso   1.00
C728   C     0.74836   0.86965   0.48017   0.00000  Uiso   1.00
C729   C     0.03633   0.91502   0.34134   0.00000  Uiso   1.00
C730   C     0.03633   0.91502   0.39683   0.00000  Uiso   1.00
C731   C     0.98389   0.94337   0.42467   0.00000  Uiso   1.00
C732   C     0.93562   0.94936   0.34132   0.00000  Uiso   1.00
C733   C     0.93562   0.94936   0.39685   0.00000  Uiso   1.00
C734   C     0.90057   0.93277   0.42468   0.00000  Uiso   1.00
C735   C     0.98389   0.94337   0.48017   0.00000  Uiso   1.00
C736   C     0.88399   0.89770   0.34132   0.00000  Uiso   1.00
C737   C     0.88399   0.89770   0.39685   0.00000  Uiso   1.00
C738   C     0.88997   0.84944   0.42467   0.00000  Uiso   1.00
C739   C     0.90057   0.93277   0.48016   0.00000  Uiso   1.00
C740   C     0.91831   0.79701   0.34135   0.00000  Uiso   1.00
C741   C     0.91831   0.79701   0.39683   0.00000  Uiso   1.00
C742   C     0.96367   0.75164   0.42468   0.00000  Uiso   1.00
C743   C     0.88997   0.84944   0.48017   0.00000  Uiso   1.00
C744   C     0.01611   0.72329   0.34134   0.00000  Uiso   1.00
C745   C     0.01611   0.72329   0.39684   0.00000  Uiso   1.00
C746   C     0.06438   0.71731   0.42466   0.00000  Uiso   1.00
C747   C     0.96367   0.75164   0.48017   0.00000  Uiso   1.00
C748   C     0.09943   0.73390   0.34135   0.00000  Uiso   1.00
C749   C     0.09943   0.73390   0.39683   0.00000  Uiso   1.00
C750   C     0.11601   0.76896   0.42466   0.00000  Uiso   1.00
C751   C     0.06438   0.71731   0.48019   0.00000  Uiso   1.00
C752   C     0.11003   0.81722   0.34134   0.00000  Uiso   1.00
C753   C     0.11003   0.81722   0.39684   0.00000  Uiso   1.00
C754   C     0.08169   0.86965   0.42468   0.00000  Uiso   1.00
C755   C     0.11601   0.76896   0.48019   0.00000  Uiso   1.00
C756   C     0.08169   0.86965   0.48016   0.00000  Uiso   1.00
C757   C     0.03633   0.24836   0.50801   0.00000  Uiso   1.00
C758   C     0.03633   0.24836   0.56350   0.00000  Uiso   1.00
C759   C     0.98389   0.27671   0.59134   0.00000  Uiso   1.00
C760   C     0.93562   0.28269   0.50799   0.00000  Uiso   1.00
C761   C     0.93562   0.28269   0.56352   0.00000  Uiso   1.00
C762   C     0.90057   0.26610   0.59135   0.00000  Uiso   1.00
C763   C     0.98389   0.27671   0.64684   0.00000  Uiso   1.00
C764   C     0.88399   0.23104   0.50799   0.00000  Uiso   1.00
C765   C     0.88399   0.23104   0.56352   0.00000  Uiso   1.00
C766   C     0.88997   0.18278   0.59134   0.00000  Uiso   1.00
C767   C     0.90057   0.26610   0.64683   0.00000  Uiso   1.00
C768   C     0.91831   0.13034   0.50801   0.00000  Uiso   1.00
C769   C     0.91831   0.13034   0.56350   0.00000  Uiso   1.00
C770   C     0.96367   0.08498   0.59135   0.00000  Uiso   1.00
C771   C     0.88997   0.18278   0.64684   0.00000  Uiso   1.00
C772   C     0.01611   0.05663   0.50801   0.00000  Uiso   1.00
C773   C     0.01611   0.05663   0.56350   0.00000  Uiso   1.00
C774   C     0.06438   0.05064   0.59132   0.00000  Uiso   1.00
C775   C     0.96367   0.08498   0.64683   0.00000  Uiso   1.00
C776   C     0.09943   0.06723   0.50802   0.00000  Uiso   1.00
C777   C     0.09943   0.06723   0.56350   0.00000  Uiso   1.00
C778   C     0.11601   0.10230   0.59132   0.00000  Uiso   1.00
C779   C     0.06438   0.05064   0.64685   0.00000  Uiso   1.00
C780   C     0.11003   0.15056   0.50801   0.00000  Uiso   1.00
C781   C     0.11003   0.15056   0.56350   0.00000  Uiso   1.00
C782   C     0.08169   0.20299   0.59134   0.00000  Uiso   1.00
C783   C     0.11601   0.10230   0.64685   0.00000  Uiso   1.00
C784   C     0.08169   0.20299   0.64683   0.00000  Uiso   1.00
C785   C     0.36967   0.24835   0.50801   0.00000  Uiso   1.00
C786   C     0.36967   0.24835   0.56350   0.00000  Uiso   1.00
C787   C     0.31723   0.27671   0.59134   0.00000  Uiso   1.00
C788   C     0.26895   0.28269   0.50799   0.00000  Uiso   1.00
C789   C     0.26895   0.28269   0.56352   0.00000  Uiso   1.00
C790   C     0.23390   0.26610   0.59135   0.00000  Uiso   1.00
C791   C     0.31723   0.27671   0.64684   0.00000  Uiso   1.00
C792   C     0.21732   0.23104   0.50799   0.00000  Uiso   1.00
C793   C     0.21732   0.23103   0.56352   0.00000  Uiso   1.00
C794   C     0.22331   0.18278   0.59134   0.00000  Uiso   1.00
C795   C     0.23390   0.26610   0.64683   0.00000  Uiso   1.00
C796   C     0.25164   0.13034   0.50801   0.00000  Uiso   1.00
C797   C     0.25164   0.13035   0.56350   0.00000  Uiso   1.00
C798   C     0.29700   0.08498   0.59135   0.00000  Uiso   1.00
C799   C     0.22331   0.18278   0.64684   0.00000  Uiso   1.00
C800   C     0.34944   0.05663   0.50801   0.00000  Uiso   1.00
C801   C     0.34944   0.05663   0.56350   0.00000  Uiso   1.00
C802   C     0.39771   0.05064   0.59132   0.00000  Uiso   1.00
C803   C     0.29700   0.08498   0.64683   0.00000  Uiso   1.00
C804   C     0.43277   0.06723   0.50802   0.00000  Uiso   1.00
C805   C     0.43277   0.06723   0.56350   0.00000  Uiso   1.00
C806   C     0.44934   0.10230   0.59132   0.00000  Uiso   1.00
C807   C     0.39771   0.05064   0.64685   0.00000  Uiso   1.00
C808   C     0.44336   0.15056   0.50801   0.00000  Uiso   1.00
C809   C     0.44336   0.15056   0.56350   0.00000  Uiso   1.00
C810   C     0.41502   0.20299   0.59134   0.00000  Uiso   1.00
C811   C     0.44934   0.10230   0.64685   0.00000  Uiso   1.00
C812   C     0.41502   0.20299   0.64683   0.00000  Uiso   1.00
C813   C     0.70300   0.24836   0.50801   0.00000  Uiso   1.00
C814   C     0.70300   0.24835   0.56350   0.00000  Uiso   1.00
C815   C     0.65056   0.27671   0.59134   0.00000  Uiso   1.00
C816   C     0.60229   0.28269   0.50799   0.00000  Uiso   1.00
C817   C     0.60229   0.28269   0.56352   0.00000  Uiso   1.00
C818   C     0.56723   0.26610   0.59135   0.00000  Uiso   1.00
C819   C     0.65056   0.27671   0.64684   0.00000  Uiso   1.00
C820   C     0.55066   0.23104   0.50799   0.00000  Uiso   1.00
C821   C     0.55066   0.23104   0.56352   0.00000  Uiso   1.00
C822   C     0.55664   0.18278   0.59134   0.00000  Uiso   1.00
C823   C     0.56723   0.26610   0.64683   0.00000  Uiso   1.00
C824   C     0.58498   0.13034   0.50801   0.00000  Uiso   1.00
C825   C     0.58497   0.13035   0.56350   0.00000  Uiso   1.00
C826   C     0.63033   0.08498   0.59134   0.00000  Uiso   1.00
C827   C     0.55664   0.18278   0.64684   0.00000  Uiso   1.00
C828   C     0.68277   0.05663   0.50801   0.00000  Uiso   1.00
C829   C     0.68277   0.05663   0.56350   0.00000  Uiso   1.00
C830   C     0.73105   0.05064   0.59132   0.00000  Uiso   1.00
C831   C     0.63033   0.08498   0.64683   0.00000  Uiso   1.00
C832   C     0.76610   0.06723   0.50802   0.00000  Uiso   1.00
C833   C     0.76610   0.06723   0.56350   0.00000  Uiso   1.00
C834   C     0.78268   0.10230   0.59132   0.00000  Uiso   1.00
C835   C     0.73105   0.05064   0.64685   0.00000  Uiso   1.00
C836   C     0.77669   0.15056   0.50801   0.00000  Uiso   1.00
C837   C     0.77669   0.15056   0.56350   0.00000  Uiso   1.00
C838   C     0.74836   0.20299   0.59134   0.00000  Uiso   1.00
C839   C     0.78268   0.10230   0.64685   0.00000  Uiso   1.00
C840   C     0.74836   0.20299   0.64683   0.00000  Uiso   1.00
C841   C     0.70300   0.58169   0.50801   0.00000  Uiso   1.00
C842   C     0.70300   0.58169   0.56350   0.00000  Uiso   1.00
C843   C     0.65056   0.61004   0.59134   0.00000  Uiso   1.00
C844   C     0.60229   0.61602   0.50799   0.00000  Uiso   1.00
C845   C     0.60229   0.61602   0.56352   0.00000  Uiso   1.00
C846   C     0.56723   0.59943   0.59135   0.00000  Uiso   1.00
C847   C     0.65056   0.61004   0.64684   0.00000  Uiso   1.00
C848   C     0.55066   0.56437   0.50799   0.00000  Uiso   1.00
C849   C     0.55066   0.56437   0.56352   0.00000  Uiso   1.00
C850   C     0.55664   0.51611   0.59134   0.00000  Uiso   1.00
C851   C     0.56723   0.59943   0.64683   0.00000  Uiso   1.00
C852   C     0.58498   0.46368   0.50801   0.00000  Uiso   1.00
C853   C     0.58498   0.46368   0.56350   0.00000  Uiso   1.00
C854   C     0.63033   0.41831   0.59135   0.00000  Uiso   1.00
C855   C     0.55664   0.51611   0.64684   0.00000  Uiso   1.00
C856   C     0.68277   0.38996   0.50801   0.00000  Uiso   1.00
C857   C     0.68277   0.38996   0.56350   0.00000  Uiso   1.00
C858   C     0.73105   0.38397   0.59133   0.00000  Uiso   1.00
C859   C     0.63033   0.41831   0.64683   0.00000  Uiso   1.00
C860   C     0.76610   0.40057   0.50802   0.00000  Uiso   1.00
C861   C     0.76610   0.40057   0.56350   0.00000  Uiso   1.00
C862   C     0.78268   0.43563   0.59132   0.00000  Uiso   1.00
C863   C     0.73105   0.38397   0.64685   0.00000  Uiso   1.00
C864   C     0.77669   0.48389   0.50801   0.00000  Uiso   1.00
C865   C     0.77669   0.48389   0.56350   0.00000  Uiso   1.00
C866   C     0.74836   0.53632   0.59134   0.00000  Uiso   1.00
C867   C     0.78268   0.43563   0.64685   0.00000  Uiso   1.00
C868   C     0.74836   0.53632   0.64683   0.00000  Uiso   1.00
C869   C     0.03633   0.58169   0.50801   0.00000  Uiso   1.00
C870   C     0.03633   0.58169   0.56350   0.00000  Uiso   1.00
C871   C     0.98389   0.61004   0.59134   0.00000  Uiso   1.00
C872   C     0.93562   0.61602   0.50799   0.00000  Uiso   1.00
C873   C     0.93562   0.61602   0.56352   0.00000  Uiso   1.00
C874   C     0.90057   0.59943   0.59135   0.00000  Uiso   1.00
C875   C     0.98389   0.61004   0.64684   0.00000  Uiso   1.00
C876   C     0.88399   0.56437   0.50799   0.00000  Uiso   1.00
C877   C     0.88399   0.56437   0.56352   0.00000  Uiso   1.00
C878   C     0.88997   0.51611   0.59134   0.00000  Uiso   1.00
C879   C     0.90057   0.59943   0.64683   0.00000  Uiso   1.00
C880   C     0.91831   0.46368   0.50801   0.00000  Uiso   1.00
C881   C     0.91831   0.46368   0.56350   0.00000  Uiso   1.00
C882   C     0.96367   0.41831   0.59135   0.00000  Uiso   1.00
C883   C     0.88997   0.51611   0.64684   0.00000  Uiso   1.00
C884   C     0.01611   0.38996   0.50801   0.00000  Uiso   1.00
C885   C     0.01611   0.38996   0.56350   0.00000  Uiso   1.00
C886   C     0.06438   0.38397   0.59132   0.00000  Uiso   1.00
C887   C     0.96367   0.41831   0.64683   0.00000  Uiso   1.00
C888   C     0.09943   0.40057   0.50802   0.00000  Uiso   1.00
C889   C     0.09943   0.40057   0.56350   0.00000  Uiso   1.00
C890   C     0.11601   0.43563   0.59132   0.00000  Uiso   1.00
C891   C     0.06438   0.38397   0.64685   0.00000  Uiso   1.00
C892   C     0.11003   0.48389   0.50801   0.00000  Uiso   1.00
C893   C     0.11003   0.48389   0.56350   0.00000  Uiso   1.00
C894   C     0.08169   0.53632   0.59134   0.00000  Uiso   1.00
C895   C     0.11601   0.43563   0.64685   0.00000  Uiso   1.00
C896   C     0.08169   0.53632   0.64683   0.00000  Uiso   1.00
C897   C     0.36967   0.58169   0.50801   0.00000  Uiso   1.00
C898   C     0.36967   0.58169   0.56350   0.00000  Uiso   1.00
C899   C     0.31722   0.61004   0.59134   0.00000  Uiso   1.00
C900   C     0.26895   0.61603   0.50799   0.00000  Uiso   1.00
C901   C     0.26895   0.61602   0.56352   0.00000  Uiso   1.00
C902   C     0.23390   0.59943   0.59135   0.00000  Uiso   1.00
C903   C     0.31722   0.61004   0.64684   0.00000  Uiso   1.00
C904   C     0.21732   0.56437   0.50799   0.00000  Uiso   1.00
C905   C     0.21732   0.56437   0.56352   0.00000  Uiso   1.00
C906   C     0.22331   0.51611   0.59134   0.00000  Uiso   1.00
C907   C     0.23390   0.59943   0.64683   0.00000  Uiso   1.00
C908   C     0.25164   0.46368   0.50801   0.00000  Uiso   1.00
C909   C     0.25164   0.46368   0.56350   0.00000  Uiso   1.00
C910   C     0.29700   0.41831   0.59135   0.00000  Uiso   1.00
C911   C     0.22331   0.51611   0.64684   0.00000  Uiso   1.00
C912   C     0.34944   0.38996   0.50801   0.00000  Uiso   1.00
C913   C     0.34944   0.38996   0.56350   0.00000  Uiso   1.00
C914   C     0.39771   0.38397   0.59132   0.00000  Uiso   1.00
C915   C     0.29700   0.41831   0.64683   0.00000  Uiso   1.00
C916   C     0.43277   0.40057   0.50802   0.00000  Uiso   1.00
C917   C     0.43277   0.40057   0.56350   0.00000  Uiso   1.00
C918   C     0.44934   0.43563   0.59132   0.00000  Uiso   1.00
C919   C     0.39771   0.38397   0.64685   0.00000  Uiso   1.00
C920   C     0.44336   0.48389   0.50801   0.00000  Uiso   1.00
C921   C     0.44336   0.48389   0.56350   0.00000  Uiso   1.00
C922   C     0.41502   0.53632   0.59134   0.00000  Uiso   1.00
C923   C     0.44934   0.43563   0.64685   0.00000  Uiso   1.00
C924   C     0.41502   0.53632   0.64683   0.00000  Uiso   1.00
C925   C     0.36967   0.91502   0.50801   0.00000  Uiso   1.00
C926   C     0.36967   0.91502   0.56350   0.00000  Uiso   1.00
C927   C     0.31723   0.94337   0.59134   0.00000  Uiso   1.00
C928   C     0.26895   0.94936   0.50799   0.00000  Uiso   1.00
C929   C     0.26895   0.94936   0.56352   0.00000  Uiso   1.00
C930   C     0.23390   0.93276   0.59135   0.00000  Uiso   1.00
C931   C     0.31723   0.94337   0.64684   0.00000  Uiso   1.00
C932   C     0.21732   0.89770   0.50799   0.00000  Uiso   1.00
C933   C     0.21732   0.89770   0.56352   0.00000  Uiso   1.00
C934   C     0.22331   0.84944   0.59134   0.00000  Uiso   1.00
C935   C     0.23390   0.93276   0.64683   0.00000  Uiso   1.00
C936   C     0.25164   0.79701   0.50801   0.00000  Uiso   1.00
C937   C     0.25164   0.79701   0.56350   0.00000  Uiso   1.00
C938   C     0.29700   0.75164   0.59135   0.00000  Uiso   1.00
C939   C     0.22331   0.84944   0.64684   0.00000  Uiso   1.00
C940   C     0.34944   0.72329   0.50801   0.00000  Uiso   1.00
C941   C     0.34944   0.72329   0.56350   0.00000  Uiso   1.00
C942   C     0.39771   0.71731   0.59132   0.00000  Uiso   1.00
C943   C     0.29700   0.75164   0.64683   0.00000  Uiso   1.00
C944   C     0.43277   0.73390   0.50802   0.00000  Uiso   1.00
C945   C     0.43277   0.73390   0.56350   0.00000  Uiso   1.00
C946   C     0.44935   0.76896   0.59133   0.00000  Uiso   1.00
C947   C     0.39771   0.71731   0.64685   0.00000  Uiso   1.00
C948   C     0.44336   0.81722   0.50801   0.00000  Uiso   1.00
C949   C     0.44336   0.81722   0.56350   0.00000  Uiso   1.00
C950   C     0.41502   0.86965   0.59135   0.00000  Uiso   1.00
C951   C     0.44934   0.76896   0.64685   0.00000  Uiso   1.00
C952   C     0.41502   0.86965   0.64683   0.00000  Uiso   1.00
C953   C     0.70300   0.91502   0.50801   0.00000  Uiso   1.00
C954   C     0.70300   0.91502   0.56350   0.00000  Uiso   1.00
C955   C     0.65056   0.94337   0.59134   0.00000  Uiso   1.00
C956   C     0.60229   0.94936   0.50799   0.00000  Uiso   1.00
C957   C     0.60229   0.94936   0.56352   0.00000  Uiso   1.00
C958   C     0.56723   0.93277   0.59135   0.00000  Uiso   1.00
C959   C     0.65056   0.94337   0.64684   0.00000  Uiso   1.00
C960   C     0.55066   0.89770   0.50799   0.00000  Uiso   1.00
C961   C     0.55066   0.89770   0.56352   0.00000  Uiso   1.00
C962   C     0.55664   0.84944   0.59134   0.00000  Uiso   1.00
C963   C     0.56723   0.93277   0.64683   0.00000  Uiso   1.00
C964   C     0.58498   0.79701   0.50801   0.00000  Uiso   1.00
C965   C     0.58498   0.79701   0.56350   0.00000  Uiso   1.00
C966   C     0.63033   0.75164   0.59134   0.00000  Uiso   1.00
C967   C     0.55664   0.84944   0.64684   0.00000  Uiso   1.00
C968   C     0.68277   0.72329   0.50801   0.00000  Uiso   1.00
C969   C     0.68277   0.72329   0.56350   0.00000  Uiso   1.00
C970   C     0.73105   0.71731   0.59132   0.00000  Uiso   1.00
C971   C     0.63033   0.75164   0.64683   0.00000  Uiso   1.00
C972   C     0.76610   0.73390   0.50802   0.00000  Uiso   1.00
C973   C     0.76610   0.73390   0.56350   0.00000  Uiso   1.00
C974   C     0.78268   0.76896   0.59132   0.00000  Uiso   1.00
C975   C     0.73104   0.71731   0.64686   0.00000  Uiso   1.00
C976   C     0.77669   0.81722   0.50801   0.00000  Uiso   1.00
C977   C     0.77669   0.81722   0.56350   0.00000  Uiso   1.00
C978   C     0.74836   0.86965   0.59135   0.00000  Uiso   1.00
C979   C     0.78268   0.76896   0.64685   0.00000  Uiso   1.00
C980   C     0.74836   0.86965   0.64683   0.00000  Uiso   1.00
C981   C     0.03633   0.91502   0.50801   0.00000  Uiso   1.00
C982   C     0.03633   0.91502   0.56350   0.00000  Uiso   1.00
C983   C     0.98389   0.94337   0.59134   0.00000  Uiso   1.00
C984   C     0.93562   0.94936   0.50799   0.00000  Uiso   1.00
C985   C     0.93562   0.94936   0.56352   0.00000  Uiso   1.00
C986   C     0.90057   0.93277   0.59135   0.00000  Uiso   1.00
C987   C     0.98389   0.94337   0.64684   0.00000  Uiso   1.00
C988   C     0.88399   0.89770   0.50799   0.00000  Uiso   1.00
C989   C     0.88399   0.89770   0.56352   0.00000  Uiso   1.00
C990   C     0.88998   0.84944   0.59134   0.00000  Uiso   1.00
C991   C     0.90057   0.93277   0.64683   0.00000  Uiso   1.00
C992   C     0.91831   0.79701   0.50801   0.00000  Uiso   1.00
C993   C     0.91831   0.79701   0.56350   0.00000  Uiso   1.00
C994   C     0.96367   0.75164   0.59135   0.00000  Uiso   1.00
C995   C     0.88997   0.84944   0.64684   0.00000  Uiso   1.00
C996   C     0.01611   0.72329   0.50801   0.00000  Uiso   1.00
C997   C     0.01611   0.72329   0.56350   0.00000  Uiso   1.00
C998   C     0.06438   0.71731   0.59132   0.00000  Uiso   1.00
C999   C     0.96367   0.75164   0.64683   0.00000  Uiso   1.00
C1000  C     0.09943   0.73390   0.50802   0.00000  Uiso   1.00
C1001  C     0.09943   0.73390   0.56350   0.00000  Uiso   1.00
C1002  C     0.11601   0.76896   0.59132   0.00000  Uiso   1.00
C1003  C     0.06438   0.71731   0.64685   0.00000  Uiso   1.00
C1004  C     0.11003   0.81722   0.50801   0.00000  Uiso   1.00
C1005  C     0.11003   0.81722   0.56350   0.00000  Uiso   1.00
C1006  C     0.08169   0.86965   0.59135   0.00000  Uiso   1.00
C1007  C     0.11601   0.76896   0.64685   0.00000  Uiso   1.00
C1008  C     0.08169   0.86965   0.64683   0.00000  Uiso   1.00
C1009  C     0.03633   0.24835   0.67468   0.00000  Uiso   1.00
C1010  C     0.03633   0.24836   0.73016   0.00000  Uiso   1.00
C1011  C     0.98389   0.27671   0.75801   0.00000  Uiso   1.00
C1012  C     0.93562   0.28269   0.67466   0.00000  Uiso   1.00
C1013  C     0.93562   0.28269   0.73019   0.00000  Uiso   1.00
C1014  C     0.90057   0.26610   0.75802   0.00000  Uiso   1.00
C1015  C     0.98389   0.27671   0.81350   0.00000  Uiso   1.00
C1016  C     0.88399   0.23104   0.67466   0.00000  Uiso   1.00
C1017  C     0.88399   0.23103   0.73019   0.00000  Uiso   1.00
C1018  C     0.88997   0.18278   0.75801   0.00000  Uiso   1.00
C1019  C     0.90057   0.26610   0.81350   0.00000  Uiso   1.00
C1020  C     0.91831   0.13034   0.67468   0.00000  Uiso   1.00
C1021  C     0.91831   0.13035   0.73016   0.00000  Uiso   1.00
C1022  C     0.96367   0.08498   0.75801   0.00000  Uiso   1.00
C1023  C     0.88997   0.18278   0.81350   0.00000  Uiso   1.00
C1024  C     0.01611   0.05663   0.67468   0.00000  Uiso   1.00
C1025  C     0.01611   0.05663   0.73017   0.00000  Uiso   1.00
C1026  C     0.06438   0.05064   0.75799   0.00000  Uiso   1.00
C1027  C     0.96367   0.08498   0.81350   0.00000  Uiso   1.00
C1028  C     0.09943   0.06723   0.67468   0.00000  Uiso   1.00
C1029  C     0.09943   0.06723   0.73016   0.00000  Uiso   1.00
C1030  C     0.11601   0.10230   0.75799   0.00000  Uiso   1.00
C1031  C     0.06438   0.05064   0.81352   0.00000  Uiso   1.00
C1032  C     0.11003   0.15056   0.67467   0.00000  Uiso   1.00
C1033  C     0.11003   0.15056   0.73017   0.00000  Uiso   1.00
C1034  C     0.08169   0.20299   0.75801   0.00000  Uiso   1.00
C1035  C     0.11601   0.10230   0.81352   0.00000  Uiso   1.00
C1036  C     0.08169   0.20299   0.81350   0.00000  Uiso   1.00
C1037  C     0.36967   0.24836   0.67468   0.00000  Uiso   1.00
C1038  C     0.36967   0.24836   0.73017   0.00000  Uiso   1.00
C1039  C     0.31723   0.27671   0.75801   0.00000  Uiso   1.00
C1040  C     0.26895   0.28269   0.67466   0.00000  Uiso   1.00
C1041  C     0.26895   0.28269   0.73019   0.00000  Uiso   1.00
C1042  C     0.23390   0.26610   0.75802   0.00000  Uiso   1.00
C1043  C     0.31723   0.27671   0.81350   0.00000  Uiso   1.00
C1044  C     0.21732   0.23104   0.67466   0.00000  Uiso   1.00
C1045  C     0.21732   0.23104   0.73019   0.00000  Uiso   1.00
C1046  C     0.22331   0.18278   0.75801   0.00000  Uiso   1.00
C1047  C     0.23390   0.26610   0.81349   0.00000  Uiso   1.00
C1048  C     0.25164   0.13034   0.67468   0.00000  Uiso   1.00
C1049  C     0.25164   0.13034   0.73017   0.00000  Uiso   1.00
C1050  C     0.29700   0.08498   0.75801   0.00000  Uiso   1.00
C1051  C     0.22331   0.18278   0.81350   0.00000  Uiso   1.00
C1052  C     0.34944   0.05663   0.67467   0.00000  Uiso   1.00
C1053  C     0.34944   0.05663   0.73017   0.00000  Uiso   1.00
C1054  C     0.39771   0.05064   0.75799   0.00000  Uiso   1.00
C1055  C     0.29700   0.08498   0.81350   0.00000  Uiso   1.00
C1056  C     0.43277   0.06723   0.67468   0.00000  Uiso   1.00
C1057  C     0.43277   0.06723   0.73016   0.00000  Uiso   1.00
C1058  C     0.44934   0.10230   0.75799   0.00000  Uiso   1.00
C1059  C     0.39771   0.05064   0.81352   0.00000  Uiso   1.00
C1060  C     0.44336   0.15056   0.67468   0.00000  Uiso   1.00
C1061  C     0.44336   0.15056   0.73017   0.00000  Uiso   1.00
C1062  C     0.41502   0.20299   0.75801   0.00000  Uiso   1.00
C1063  C     0.44934   0.10230   0.81352   0.00000  Uiso   1.00
C1064  C     0.41502   0.20299   0.81350   0.00000  Uiso   1.00
C1065  C     0.70300   0.24836   0.67468   0.00000  Uiso   1.00
C1066  C     0.70300   0.24835   0.73017   0.00000  Uiso   1.00
C1067  C     0.65056   0.27671   0.75801   0.00000  Uiso   1.00
C1068  C     0.60229   0.28269   0.67466   0.00000  Uiso   1.00
C1069  C     0.60229   0.28269   0.73019   0.00000  Uiso   1.00
C1070  C     0.56723   0.26610   0.75801   0.00000  Uiso   1.00
C1071  C     0.65056   0.27671   0.81350   0.00000  Uiso   1.00
C1072  C     0.55065   0.23104   0.67466   0.00000  Uiso   1.00
C1073  C     0.55066   0.23104   0.73019   0.00000  Uiso   1.00
C1074  C     0.55664   0.18278   0.75801   0.00000  Uiso   1.00
C1075  C     0.56723   0.26610   0.81350   0.00000  Uiso   1.00
C1076  C     0.58498   0.13035   0.67468   0.00000  Uiso   1.00
C1077  C     0.58498   0.13034   0.73016   0.00000  Uiso   1.00
C1078  C     0.63033   0.08498   0.75801   0.00000  Uiso   1.00
C1079  C     0.55664   0.18278   0.81350   0.00000  Uiso   1.00
C1080  C     0.68277   0.05663   0.67468   0.00000  Uiso   1.00
C1081  C     0.68278   0.05663   0.73017   0.00000  Uiso   1.00
C1082  C     0.73104   0.05064   0.75799   0.00000  Uiso   1.00
C1083  C     0.63033   0.08498   0.81350   0.00000  Uiso   1.00
C1084  C     0.76610   0.06723   0.67468   0.00000  Uiso   1.00
C1085  C     0.76610   0.06723   0.73016   0.00000  Uiso   1.00
C1086  C     0.78268   0.10230   0.75799   0.00000  Uiso   1.00
C1087  C     0.73105   0.05064   0.81352   0.00000  Uiso   1.00
C1088  C     0.77669   0.15056   0.67467   0.00000  Uiso   1.00
C1089  C     0.77669   0.15056   0.73017   0.00000  Uiso   1.00
C1090  C     0.74836   0.20299   0.75801   0.00000  Uiso   1.00
C1091  C     0.78268   0.10230   0.81352   0.00000  Uiso   1.00
C1092  C     0.74836   0.20299   0.81350   0.00000  Uiso   1.00
C1093  C     0.70300   0.58169   0.67468   0.00000  Uiso   1.00
C1094  C     0.70300   0.58169   0.73017   0.00000  Uiso   1.00
C1095  C     0.65056   0.61004   0.75801   0.00000  Uiso   1.00
C1096  C     0.60229   0.61602   0.67466   0.00000  Uiso   1.00
C1097  C     0.60229   0.61602   0.73019   0.00000  Uiso   1.00
C1098  C     0.56723   0.59943   0.75801   0.00000  Uiso   1.00
C1099  C     0.65056   0.61004   0.81350   0.00000  Uiso   1.00
C1100  C     0.55066   0.56437   0.67466   0.00000  Uiso   1.00
C1101  C     0.55066   0.56437   0.73019   0.00000  Uiso   1.00
C1102  C     0.55664   0.51611   0.75801   0.00000  Uiso   1.00
C1103  C     0.56723   0.59943   0.81350   0.00000  Uiso   1.00
C1104  C     0.58498   0.46368   0.67468   0.00000  Uiso   1.00
C1105  C     0.58498   0.46368   0.73017   0.00000  Uiso   1.00
C1106  C     0.63033   0.41831   0.75801   0.00000  Uiso   1.00
C1107  C     0.55664   0.51611   0.81350   0.00000  Uiso   1.00
C1108  C     0.68277   0.38996   0.67467   0.00000  Uiso   1.00
C1109  C     0.68277   0.38996   0.73017   0.00000  Uiso   1.00
C1110  C     0.73105   0.38397   0.75799   0.00000  Uiso   1.00
C1111  C     0.63033   0.41831   0.81350   0.00000  Uiso   1.00
C1112  C     0.76610   0.40057   0.67468   0.00000  Uiso   1.00
C1113  C     0.76610   0.40057   0.73016   0.00000  Uiso   1.00
C1114  C     0.78268   0.43563   0.75799   0.00000  Uiso   1.00
C1115  C     0.73104   0.38397   0.81352   0.00000  Uiso   1.00
C1116  C     0.77669   0.48389   0.67467   0.00000  Uiso   1.00
C1117  C     0.77669   0.48389   0.73017   0.00000  Uiso   1.00
C1118  C     0.74836   0.53632   0.75801   0.00000  Uiso   1.00
C1119  C     0.78268   0.43563   0.81352   0.00000  Uiso   1.00
C1120  C     0.74836   0.53632   0.81350   0.00000  Uiso   1.00
C1121  C     0.03633   0.58169   0.67468   0.00000  Uiso   1.00
C1122  C     0.03633   0.58169   0.73016   0.00000  Uiso   1.00
C1123  C     0.98389   0.61004   0.75801   0.00000  Uiso   1.00
C1124  C     0.93562   0.61602   0.67466   0.00000  Uiso   1.00
C1125  C     0.93562   0.61602   0.73019   0.00000  Uiso   1.00
C1126  C     0.90057   0.59943   0.75801   0.00000  Uiso   1.00
C1127  C     0.98389   0.61004   0.81350   0.00000  Uiso   1.00
C1128  C     0.88399   0.56437   0.67466   0.00000  Uiso   1.00
C1129  C     0.88399   0.56437   0.73019   0.00000  Uiso   1.00
C1130  C     0.88997   0.51611   0.75801   0.00000  Uiso   1.00
C1131  C     0.90057   0.59943   0.81350   0.00000  Uiso   1.00
C1132  C     0.91831   0.46368   0.67468   0.00000  Uiso   1.00
C1133  C     0.91831   0.46368   0.73017   0.00000  Uiso   1.00
C1134  C     0.96367   0.41831   0.75801   0.00000  Uiso   1.00
C1135  C     0.88997   0.51611   0.81350   0.00000  Uiso   1.00
C1136  C     0.01611   0.38996   0.67467   0.00000  Uiso   1.00
C1137  C     0.01611   0.38996   0.73017   0.00000  Uiso   1.00
C1138  C     0.06438   0.38397   0.75799   0.00000  Uiso   1.00
C1139  C     0.96367   0.41831   0.81350   0.00000  Uiso   1.00
C1140  C     0.09943   0.40057   0.67468   0.00000  Uiso   1.00
C1141  C     0.09943   0.40057   0.73016   0.00000  Uiso   1.00
C1142  C     0.11601   0.43563   0.75799   0.00000  Uiso   1.00
C1143  C     0.06438   0.38397   0.81352   0.00000  Uiso   1.00
C1144  C     0.11003   0.48389   0.67468   0.00000  Uiso   1.00
C1145  C     0.11003   0.48389   0.73017   0.00000  Uiso   1.00
C1146  C     0.08169   0.53632   0.75801   0.00000  Uiso   1.00
C1147  C     0.11601   0.43563   0.81352   0.00000  Uiso   1.00
C1148  C     0.08169   0.53632   0.81350   0.00000  Uiso   1.00
C1149  C     0.36967   0.58169   0.67468   0.00000  Uiso   1.00
C1150  C     0.36967   0.58169   0.73016   0.00000  Uiso   1.00
C1151  C     0.31723   0.61004   0.75801   0.00000  Uiso   1.00
C1152  C     0.26895   0.61602   0.67466   0.00000  Uiso   1.00
C1153  C     0.26895   0.61603   0.73018   0.00000  Uiso   1.00
C1154  C     0.23390   0.59943   0.75802   0.00000  Uiso   1.00
C1155  C     0.31722   0.61004   0.81350   0.00000  Uiso   1.00
C1156  C     0.21732   0.56437   0.67466   0.00000  Uiso   1.00
C1157  C     0.21732   0.56437   0.73019   0.00000  Uiso   1.00
C1158  C     0.22331   0.51611   0.75801   0.00000  Uiso   1.00
C1159  C     0.23390   0.59943   0.81350   0.00000  Uiso   1.00
C1160  C     0.25164   0.46368   0.67468   0.00000  Uiso   1.00
C1161  C     0.25164   0.46368   0.73017   0.00000  Uiso   1.00
C1162  C     0.29700   0.41831   0.75801   0.00000  Uiso   1.00
C1163  C     0.22331   0.51611   0.81350   0.00000  Uiso   1.00
C1164  C     0.34944   0.38996   0.67467   0.00000  Uiso   1.00
C1165  C     0.34944   0.38996   0.73017   0.00000  Uiso   1.00
C1166  C     0.39771   0.38397   0.75799   0.00000  Uiso   1.00
C1167  C     0.29700   0.41831   0.81350   0.00000  Uiso   1.00
C1168  C     0.43277   0.40057   0.67468   0.00000  Uiso   1.00
C1169  C     0.43277   0.40057   0.73016   0.00000  Uiso   1.00
C1170  C     0.44934   0.43563   0.75799   0.00000  Uiso   1.00
C1171  C     0.39771   0.38397   0.81352   0.00000  Uiso   1.00
C1172  C     0.44336   0.48389   0.67467   0.00000  Uiso   1.00
C1173  C     0.44336   0.48389   0.73017   0.00000  Uiso   1.00
C1174  C     0.41502   0.53632   0.75801   0.00000  Uiso   1.00
C1175  C     0.44934   0.43563   0.81352   0.00000  Uiso   1.00
C1176  C     0.41502   0.53632   0.81350   0.00000  Uiso   1.00
C1177  C     0.36967   0.91502   0.67468   0.00000  Uiso   1.00
C1178  C     0.36967   0.91502   0.73016   0.00000  Uiso   1.00
C1179  C     0.31723   0.94337   0.75801   0.00000  Uiso   1.00
C1180  C     0.26896   0.94936   0.67466   0.00000  Uiso   1.00
C1181  C     0.26895   0.94936   0.73019   0.00000  Uiso   1.00
C1182  C     0.23390   0.93277   0.75802   0.00000  Uiso   1.00
C1183  C     0.31723   0.94337   0.81350   0.00000  Uiso   1.00
C1184  C     0.21732   0.89770   0.67466   0.00000  Uiso   1.00
C1185  C     0.21732   0.89770   0.73019   0.00000  Uiso   1.00
C1186  C     0.22331   0.84944   0.75801   0.00000  Uiso   1.00
C1187  C     0.23390   0.93277   0.81349   0.00000  Uiso   1.00
C1188  C     0.25164   0.79701   0.67468   0.00000  Uiso   1.00
C1189  C     0.25164   0.79701   0.73017   0.00000  Uiso   1.00
C1190  C     0.29700   0.75164   0.75801   0.00000  Uiso   1.00
C1191  C     0.22331   0.84944   0.81350   0.00000  Uiso   1.00
C1192  C     0.34944   0.72329   0.67467   0.00000  Uiso   1.00
C1193  C     0.34944   0.72329   0.73017   0.00000  Uiso   1.00
C1194  C     0.39771   0.71731   0.75799   0.00000  Uiso   1.00
C1195  C     0.29700   0.75164   0.81350   0.00000  Uiso   1.00
C1196  C     0.43277   0.73390   0.67468   0.00000  Uiso   1.00
C1197  C     0.43277   0.73390   0.73016   0.00000  Uiso   1.00
C1198  C     0.44935   0.76896   0.75799   0.00000  Uiso   1.00
C1199  C     0.39771   0.71731   0.81352   0.00000  Uiso   1.00
C1200  C     0.44336   0.81722   0.67467   0.00000  Uiso   1.00
C1201  C     0.44336   0.81722   0.73017   0.00000  Uiso   1.00
C1202  C     0.41502   0.86965   0.75801   0.00000  Uiso   1.00
C1203  C     0.44935   0.76896   0.81352   0.00000  Uiso   1.00
C1204  C     0.41503   0.86965   0.81350   0.00000  Uiso   1.00
C1205  C     0.70300   0.91502   0.67468   0.00000  Uiso   1.00
C1206  C     0.70300   0.91502   0.73016   0.00000  Uiso   1.00
C1207  C     0.65056   0.94337   0.75801   0.00000  Uiso   1.00
C1208  C     0.60229   0.94936   0.67466   0.00000  Uiso   1.00
C1209  C     0.60229   0.94936   0.73018   0.00000  Uiso   1.00
C1210  C     0.56723   0.93276   0.75802   0.00000  Uiso   1.00
C1211  C     0.65056   0.94337   0.81350   0.00000  Uiso   1.00
C1212  C     0.55066   0.89770   0.67466   0.00000  Uiso   1.00
C1213  C     0.55066   0.89770   0.73019   0.00000  Uiso   1.00
C1214  C     0.55664   0.84944   0.75801   0.00000  Uiso   1.00
C1215  C     0.56723   0.93277   0.81350   0.00000  Uiso   1.00
C1216  C     0.58498   0.79701   0.67468   0.00000  Uiso   1.00
C1217  C     0.58498   0.79701   0.73016   0.00000  Uiso   1.00
C1218  C     0.63033   0.75164   0.75801   0.00000  Uiso   1.00
C1219  C     0.55664   0.84944   0.81350   0.00000  Uiso   1.00
C1220  C     0.68278   0.72329   0.67468   0.00000  Uiso   1.00
C1221  C     0.68278   0.72329   0.73017   0.00000  Uiso   1.00
C1222  C     0.73105   0.71731   0.75799   0.00000  Uiso   1.00
C1223  C     0.63033   0.75164   0.81350   0.00000  Uiso   1.00
C1224  C     0.76610   0.73390   0.67468   0.00000  Uiso   1.00
C1225  C     0.76610   0.73390   0.73016   0.00000  Uiso   1.00
C1226  C     0.78268   0.76896   0.75799   0.00000  Uiso   1.00
C1227  C     0.73105   0.71731   0.81352   0.00000  Uiso   1.00
C1228  C     0.77669   0.81722   0.67467   0.00000  Uiso   1.00
C1229  C     0.77669   0.81722   0.73017   0.00000  Uiso   1.00
C1230  C     0.74836   0.86965   0.75801   0.00000  Uiso   1.00
C1231  C     0.78268   0.76896   0.81352   0.00000  Uiso   1.00
C1232  C     0.74836   0.86965   0.81350   0.00000  Uiso   1.00
C1233  C     0.03633   0.91502   0.67468   0.00000  Uiso   1.00
C1234  C     0.03633   0.91502   0.73016   0.00000  Uiso   1.00
C1235  C     0.98389   0.94337   0.75801   0.00000  Uiso   1.00
C1236  C     0.93562   0.94936   0.67466   0.00000  Uiso   1.00
C1237  C     0.93562   0.94936   0.73019   0.00000  Uiso   1.00
C1238  C     0.90057   0.93276   0.75802   0.00000  Uiso   1.00
C1239  C     0.98389   0.94337   0.81350   0.00000  Uiso   1.00
C1240  C     0.88399   0.89770   0.67466   0.00000  Uiso   1.00
C1241  C     0.88399   0.89770   0.73019   0.00000  Uiso   1.00
C1242  C     0.88997   0.84944   0.75801   0.00000  Uiso   1.00
C1243  C     0.90057   0.93276   0.81350   0.00000  Uiso   1.00
C1244  C     0.91831   0.79701   0.67468   0.00000  Uiso   1.00
C1245  C     0.91831   0.79701   0.73017   0.00000  Uiso   1.00
C1246  C     0.96367   0.75164   0.75801   0.00000  Uiso   1.00
C1247  C     0.88997   0.84944   0.81350   0.00000  Uiso   1.00
C1248  C     0.01611   0.72329   0.67468   0.00000  Uiso   1.00
C1249  C     0.01611   0.72329   0.73017   0.00000  Uiso   1.00
C1250  C     0.06438   0.71731   0.75799   0.00000  Uiso   1.00
C1251  C     0.96367   0.75164   0.81350   0.00000  Uiso   1.00
C1252  C     0.09943   0.73390   0.67468   0.00000  Uiso   1.00
C1253  C     0.09943   0.73390   0.73016   0.00000  Uiso   1.00
C1254  C     0.11601   0.76896   0.75799   0.00000  Uiso   1.00
C1255  C     0.06438   0.71731   0.81352   0.00000  Uiso   1.00
C1256  C     0.11003   0.81722   0.67467   0.00000  Uiso   1.00
C1257  C     0.11002   0.81722   0.73017   0.00000  Uiso   1.00
C1258  C     0.08169   0.86965   0.75801   0.00000  Uiso   1.00
C1259  C     0.11601   0.76896   0.81352   0.00000  Uiso   1.00
C1260  C     0.08169   0.86965   0.81350   0.00000  Uiso   1.00
C1261  C     0.03633   0.24836   0.84135   0.00000  Uiso   1.00
C1262  C     0.03633   0.24836   0.89683   0.00000  Uiso   1.00
C1263  C     0.98389   0.27670   0.92467   0.00000  Uiso   1.00
C1264  C     0.93562   0.28269   0.84133   0.00000  Uiso   1.00
C1265  C     0.93562   0.28269   0.89685   0.00000  Uiso   1.00
C1266  C     0.90057   0.26610   0.92468   0.00000  Uiso   1.00
C1267  C     0.98389   0.27671   0.98017   0.00000  Uiso   1.00
C1268  C     0.88399   0.23104   0.84132   0.00000  Uiso   1.00
C1269  C     0.88399   0.23103   0.89685   0.00000  Uiso   1.00
C1270  C     0.88997   0.18278   0.92468   0.00000  Uiso   1.00
C1271  C     0.90057   0.26610   0.98016   0.00000  Uiso   1.00
C1272  C     0.91831   0.13034   0.84135   0.00000  Uiso   1.00
C1273  C     0.91831   0.13035   0.89683   0.00000  Uiso   1.00
C1274  C     0.96367   0.08498   0.92468   0.00000  Uiso   1.00
C1275  C     0.88997   0.18278   0.98017   0.00000  Uiso   1.00
C1276  C     0.01611   0.05663   0.84134   0.00000  Uiso   1.00
C1277  C     0.01611   0.05663   0.89684   0.00000  Uiso   1.00
C1278  C     0.06438   0.05064   0.92466   0.00000  Uiso   1.00
C1279  C     0.96367   0.08498   0.98017   0.00000  Uiso   1.00
C1280  C     0.09943   0.06723   0.84135   0.00000  Uiso   1.00
C1281  C     0.09943   0.06723   0.89683   0.00000  Uiso   1.00
C1282  C     0.11601   0.10230   0.92466   0.00000  Uiso   1.00
C1283  C     0.06438   0.05064   0.98019   0.00000  Uiso   1.00
C1284  C     0.11003   0.15056   0.84134   0.00000  Uiso   1.00
C1285  C     0.11003   0.15056   0.89684   0.00000  Uiso   1.00
C1286  C     0.08169   0.20299   0.92468   0.00000  Uiso   1.00
C1287  C     0.11601   0.10230   0.98019   0.00000  Uiso   1.00
C1288  C     0.08169   0.20299   0.98017   0.00000  Uiso   1.00
C1289  C     0.36967   0.24835   0.84134   0.00000  Uiso   1.00
C1290  C     0.36967   0.24836   0.89683   0.00000  Uiso   1.00
C1291  C     0.31722   0.27671   0.92467   0.00000  Uiso   1.00
C1292  C     0.26895   0.28269   0.84132   0.00000  Uiso   1.00
C1293  C     0.26895   0.28269   0.89685   0.00000  Uiso   1.00
C1294  C     0.23390   0.26610   0.92468   0.00000  Uiso   1.00
C1295  C     0.31723   0.27671   0.98017   0.00000  Uiso   1.00
C1296  C     0.21732   0.23104   0.84132   0.00000  Uiso   1.00
C1297  C     0.21732   0.23104   0.89685   0.00000  Uiso   1.00
C1298  C     0.22331   0.18278   0.92467   0.00000  Uiso   1.00
C1299  C     0.23390   0.26610   0.98016   0.00000  Uiso   1.00
C1300  C     0.25164   0.13035   0.84135   0.00000  Uiso   1.00
C1301  C     0.25164   0.13034   0.89683   0.00000  Uiso   1.00
C1302  C     0.29700   0.08498   0.92468   0.00000  Uiso   1.00
C1303  C     0.22331   0.18278   0.98017   0.00000  Uiso   1.00
C1304  C     0.34944   0.05663   0.84134   0.00000  Uiso   1.00
C1305  C     0.34944   0.05663   0.89684   0.00000  Uiso   1.00
C1306  C     0.39771   0.05064   0.92466   0.00000  Uiso   1.00
C1307  C     0.29700   0.08498   0.98017   0.00000  Uiso   1.00
C1308  C     0.43277   0.06723   0.84135   0.00000  Uiso   1.00
C1309  C     0.43277   0.06723   0.89683   0.00000  Uiso   1.00
C1310  C     0.44934   0.10230   0.92466   0.00000  Uiso   1.00
C1311  C     0.39771   0.05064   0.98019   0.00000  Uiso   1.00
C1312  C     0.44336   0.15056   0.84134   0.00000  Uiso   1.00
C1313  C     0.44336   0.15056   0.89684   0.00000  Uiso   1.00
C1314  C     0.41502   0.20299   0.92468   0.00000  Uiso   1.00
C1315  C     0.44934   0.10230   0.98019   0.00000  Uiso   1.00
C1316  C     0.41502   0.20299   0.98016   0.00000  Uiso   1.00
C1317  C     0.70300   0.24836   0.84135   0.00000  Uiso   1.00
C1318  C     0.70300   0.24836   0.89683   0.00000  Uiso   1.00
C1319  C     0.65056   0.27671   0.92467   0.00000  Uiso   1.00
C1320  C     0.60229   0.28269   0.84132   0.00000  Uiso   1.00
C1321  C     0.60229   0.28269   0.89685   0.00000  Uiso   1.00
C1322  C     0.56723   0.26610   0.92468   0.00000  Uiso   1.00
C1323  C     0.65056   0.27671   0.98017   0.00000  Uiso   1.00
C1324  C     0.55066   0.23104   0.84132   0.00000  Uiso   1.00
C1325  C     0.55065   0.23104   0.89685   0.00000  Uiso   1.00
C1326  C     0.55664   0.18278   0.92468   0.00000  Uiso   1.00
C1327  C     0.56723   0.26610   0.98016   0.00000  Uiso   1.00
C1328  C     0.58497   0.13035   0.84135   0.00000  Uiso   1.00
C1329  C     0.58498   0.13034   0.89683   0.00000  Uiso   1.00
C1330  C     0.63033   0.08498   0.92468   0.00000  Uiso   1.00
C1331  C     0.55664   0.18277   0.98017   0.00000  Uiso   1.00
C1332  C     0.68277   0.05663   0.84134   0.00000  Uiso   1.00
C1333  C     0.68277   0.05663   0.89684   0.00000  Uiso   1.00
C1334  C     0.73105   0.05064   0.92466   0.00000  Uiso   1.00
C1335  C     0.63033   0.08498   0.98017   0.00000  Uiso   1.00
C1336  C     0.76610   0.06723   0.84135   0.00000  Uiso   1.00
C1337  C     0.76610   0.06723   0.89683   0.00000  Uiso   1.00
C1338  C     0.78268   0.10230   0.92466   0.00000  Uiso   1.00
C1339  C     0.73105   0.05064   0.98019   0.00000  Uiso   1.00
C1340  C     0.77669   0.15056   0.84134   0.00000  Uiso   1.00
C1341  C     0.77669   0.15056   0.89684   0.00000  Uiso   1.00
C1342  C     0.74836   0.20299   0.92468   0.00000  Uiso   1.00
C1343  C     0.78268   0.10230   0.98019   0.00000  Uiso   1.00
C1344  C     0.74836   0.20299   0.98017   0.00000  Uiso   1.00
C1345  C     0.70300   0.58169   0.84135   0.00000  Uiso   1.00
C1346  C     0.70300   0.58169   0.89683   0.00000  Uiso   1.00
C1347  C     0.65056   0.61004   0.92467   0.00000  Uiso   1.00
C1348  C     0.60229   0.61602   0.84132   0.00000  Uiso   1.00
C1349  C     0.60229   0.61602   0.89685   0.00000  Uiso   1.00
C1350  C     0.56723   0.59943   0.92468   0.00000  Uiso   1.00
C1351  C     0.65056   0.61004   0.98017   0.00000  Uiso   1.00
C1352  C     0.55066   0.56437   0.84133   0.00000  Uiso   1.00
C1353  C     0.55066   0.56437   0.89685   0.00000  Uiso   1.00
C1354  C     0.55664   0.51611   0.92467   0.00000  Uiso   1.00
C1355  C     0.56723   0.59943   0.98016   0.00000  Uiso   1.00
C1356  C     0.58498   0.46368   0.84135   0.00000  Uiso   1.00
C1357  C     0.58498   0.46368   0.89683   0.00000  Uiso   1.00
C1358  C     0.63033   0.41831   0.92468   0.00000  Uiso   1.00
C1359  C     0.55664   0.51611   0.98017   0.00000  Uiso   1.00
C1360  C     0.68278   0.38996   0.84134   0.00000  Uiso   1.00
C1361  C     0.68277   0.38996   0.89684   0.00000  Uiso   1.00
C1362  C     0.73105   0.38397   0.92466   0.00000  Uiso   1.00
C1363  C     0.63034   0.41831   0.98017   0.00000  Uiso   1.00
C1364  C     0.76610   0.40057   0.84135   0.00000  Uiso   1.00
C1365  C     0.76610   0.40057   0.89683   0.00000  Uiso   1.00
C1366  C     0.78268   0.43563   0.92466   0.00000  Uiso   1.00
C1367  C     0.73105   0.38397   0.98019   0.00000  Uiso   1.00
C1368  C     0.77669   0.48389   0.84134   0.00000  Uiso   1.00
C1369  C     0.77669   0.48389   0.89684   0.00000  Uiso   1.00
C1370  C     0.74836   0.53632   0.92468   0.00000  Uiso   1.00
C1371  C     0.78268   0.43563   0.98019   0.00000  Uiso   1.00
C1372  C     0.74836   0.53632   0.98017   0.00000  Uiso   1.00
C1373  C     0.03633   0.58169   0.84135   0.00000  Uiso   1.00
C1374  C     0.03633   0.58169   0.89683   0.00000  Uiso   1.00
C1375  C     0.98389   0.61004   0.92467   0.00000  Uiso   1.00
C1376  C     0.93562   0.61602   0.84132   0.00000  Uiso   1.00
C1377  C     0.93562   0.61602   0.89685   0.00000  Uiso   1.00
C1378  C     0.90057   0.59943   0.92468   0.00000  Uiso   1.00
C1379  C     0.98389   0.61004   0.98017   0.00000  Uiso   1.00
C1380  C     0.88399   0.56437   0.84132   0.00000  Uiso   1.00
C1381  C     0.88399   0.56437   0.89685   0.00000  Uiso   1.00
C1382  C     0.88997   0.51611   0.92468   0.00000  Uiso   1.00
C1383  C     0.90057   0.59943   0.98016   0.00000  Uiso   1.00
C1384  C     0.91831   0.46368   0.84135   0.00000  Uiso   1.00
C1385  C     0.91831   0.46368   0.89683   0.00000  Uiso   1.00
C1386  C     0.96367   0.41831   0.92468   0.00000  Uiso   1.00
C1387  C     0.88997   0.51611   0.98017   0.00000  Uiso   1.00
C1388  C     0.01611   0.38996   0.84134   0.00000  Uiso   1.00
C1389  C     0.01611   0.38996   0.89684   0.00000  Uiso   1.00
C1390  C     0.06438   0.38397   0.92466   0.00000  Uiso   1.00
C1391  C     0.96367   0.41831   0.98017   0.00000  Uiso   1.00
C1392  C     0.09943   0.40057   0.84135   0.00000  Uiso   1.00
C1393  C     0.09943   0.40057   0.89683   0.00000  Uiso   1.00
C1394  C     0.11601   0.43563   0.92466   0.00000  Uiso   1.00
C1395  C     0.06438   0.38397   0.98019   0.00000  Uiso   1.00
C1396  C     0.11003   0.48389   0.84134   0.00000  Uiso   1.00
C1397  C     0.11003   0.48389   0.89684   0.00000  Uiso   1.00
C1398  C     0.08169   0.53632   0.92468   0.00000  Uiso   1.00
C1399  C     0.11601   0.43563   0.98019   0.00000  Uiso   1.00
C1400  C     0.08169   0.53632   0.98017   0.00000  Uiso   1.00
C1401  C     0.36967   0.58169   0.84135   0.00000  Uiso   1.00
C1402  C     0.36967   0.58169   0.89683   0.00000  Uiso   1.00
C1403  C     0.31723   0.61004   0.92467   0.00000  Uiso   1.00
C1404  C     0.26895   0.61602   0.84132   0.00000  Uiso   1.00
C1405  C     0.26895   0.61603   0.89685   0.00000  Uiso   1.00
C1406  C     0.23390   0.59943   0.92468   0.00000  Uiso   1.00
C1407  C     0.31723   0.61004   0.98017   0.00000  Uiso   1.00
C1408  C     0.21732   0.56437   0.84132   0.00000  Uiso   1.00
C1409  C     0.21732   0.56437   0.89685   0.00000  Uiso   1.00
C1410  C     0.22331   0.51611   0.92468   0.00000  Uiso   1.00
C1411  C     0.23390   0.59943   0.98016   0.00000  Uiso   1.00
C1412  C     0.25164   0.46368   0.84135   0.00000  Uiso   1.00
C1413  C     0.25164   0.46368   0.89683   0.00000  Uiso   1.00
C1414  C     0.29700   0.41831   0.92468   0.00000  Uiso   1.00
C1415  C     0.22331   0.51611   0.98017   0.00000  Uiso   1.00
C1416  C     0.34944   0.38996   0.84134   0.00000  Uiso   1.00
C1417  C     0.34944   0.38996   0.89684   0.00000  Uiso   1.00
C1418  C     0.39771   0.38397   0.92466   0.00000  Uiso   1.00
C1419  C     0.29700   0.41831   0.98017   0.00000  Uiso   1.00
C1420  C     0.43277   0.40057   0.84135   0.00000  Uiso   1.00
C1421  C     0.43277   0.40057   0.89683   0.00000  Uiso   1.00
C1422  C     0.44934   0.43563   0.92466   0.00000  Uiso   1.00
C1423  C     0.39771   0.38397   0.98019   0.00000  Uiso   1.00
C1424  C     0.44336   0.48389   0.84134   0.00000  Uiso   1.00
C1425  C     0.44336   0.48389   0.89684   0.00000  Uiso   1.00
C1426  C     0.41502   0.53632   0.92468   0.00000  Uiso   1.00
C1427  C     0.44934   0.43563   0.98019   0.00000  Uiso   1.00
C1428  C     0.41502   0.53632   0.98016   0.00000  Uiso   1.00
C1429  C     0.36967   0.91502   0.84134   0.00000  Uiso   1.00
C1430  C     0.36967   0.91502   0.89683   0.00000  Uiso   1.00
C1431  C     0.31723   0.94337   0.92467   0.00000  Uiso   1.00
C1432  C     0.26896   0.94936   0.84132   0.00000  Uiso   1.00
C1433  C     0.26896   0.94936   0.89685   0.00000  Uiso   1.00
C1434  C     0.23390   0.93276   0.92468   0.00000  Uiso   1.00
C1435  C     0.31723   0.94337   0.98017   0.00000  Uiso   1.00
C1436  C     0.21732   0.89770   0.84133   0.00000  Uiso   1.00
C1437  C     0.21732   0.89770   0.89685   0.00000  Uiso   1.00
C1438  C     0.22331   0.84944   0.92467   0.00000  Uiso   1.00
C1439  C     0.23390   0.93277   0.98016   0.00000  Uiso   1.00
C1440  C     0.25164   0.79701   0.84135   0.00000  Uiso   1.00
C1441  C     0.25164   0.79701   0.89683   0.00000  Uiso   1.00
C1442  C     0.29700   0.75164   0.92468   0.00000  Uiso   1.00
C1443  C     0.22331   0.84944   0.98017   0.00000  Uiso   1.00
C1444  C     0.34944   0.72329   0.84134   0.00000  Uiso   1.00
C1445  C     0.34944   0.72329   0.89684   0.00000  Uiso   1.00
C1446  C     0.39771   0.71731   0.92466   0.00000  Uiso   1.00
C1447  C     0.29700   0.75164   0.98017   0.00000  Uiso   1.00
C1448  C     0.43277   0.73390   0.84135   0.00000  Uiso   1.00
C1449  C     0.43277   0.73390   0.89683   0.00000  Uiso   1.00
C1450  C     0.44935   0.76896   0.92466   0.00000  Uiso   1.00
C1451  C     0.39771   0.71731   0.98019   0.00000  Uiso   1.00
C1452  C     0.44336   0.81722   0.84134   0.00000  Uiso   1.00
C1453  C     0.44336   0.81722   0.89684   0.00000  Uiso   1.00
C1454  C     0.41502   0.86965   0.92468   0.00000  Uiso   1.00
C1455  C     0.44934   0.76896   0.98019   0.00000  Uiso   1.00
C1456  C     0.41502   0.86965   0.98016   0.00000  Uiso   1.00
C1457  C     0.70300   0.91502   0.84134   0.00000  Uiso   1.00
C1458  C     0.70300   0.91502   0.89683   0.00000  Uiso   1.00
C1459  C     0.65056   0.94337   0.92467   0.00000  Uiso   1.00
C1460  C     0.60229   0.94936   0.84132   0.00000  Uiso   1.00
C1461  C     0.60229   0.94936   0.89685   0.00000  Uiso   1.00
C1462  C     0.56723   0.93277   0.92468   0.00000  Uiso   1.00
C1463  C     0.65056   0.94337   0.98017   0.00000  Uiso   1.00
C1464  C     0.55066   0.89770   0.84132   0.00000  Uiso   1.00
C1465  C     0.55066   0.89770   0.89685   0.00000  Uiso   1.00
C1466  C     0.55664   0.84944   0.92468   0.00000  Uiso   1.00
C1467  C     0.56723   0.93276   0.98016   0.00000  Uiso   1.00
C1468  C     0.58498   0.79701   0.84135   0.00000  Uiso   1.00
C1469  C     0.58498   0.79701   0.89683   0.00000  Uiso   1.00
C1470  C     0.63033   0.75164   0.92468   0.00000  Uiso   1.00
C1471  C     0.55664   0.84944   0.98017   0.00000  Uiso   1.00
C1472  C     0.68277   0.72329   0.84134   0.00000  Uiso   1.00
C1473  C     0.68277   0.72329   0.89684   0.00000  Uiso   1.00
C1474  C     0.73105   0.71731   0.92466   0.00000  Uiso   1.00
C1475  C     0.63034   0.75164   0.98017   0.00000  Uiso   1.00
C1476  C     0.76610   0.73390   0.84135   0.00000  Uiso   1.00
C1477  C     0.76610   0.73390   0.89683   0.00000  Uiso   1.00
C1478  C     0.78268   0.76896   0.92466   0.00000  Uiso   1.00
C1479  C     0.73104   0.71731   0.98019   0.00000  Uiso   1.00
C1480  C     0.77669   0.81722   0.84134   0.00000  Uiso   1.00
C1481  C     0.77669   0.81722   0.89684   0.00000  Uiso   1.00
C1482  C     0.74836   0.86965   0.92468   0.00000  Uiso   1.00
C1483  C     0.78268   0.76896   0.98019   0.00000  Uiso   1.00
C1484  C     0.74836   0.86965   0.98017   0.00000  Uiso   1.00
C1485  C     0.03633   0.91502   0.84134   0.00000  Uiso   1.00
C1486  C     0.03633   0.91502   0.89683   0.00000  Uiso   1.00
C1487  C     0.98389   0.94337   0.92467   0.00000  Uiso   1.00
C1488  C     0.93562   0.94936   0.84132   0.00000  Uiso   1.00
C1489  C     0.93562   0.94936   0.89685   0.00000  Uiso   1.00
C1490  C     0.90057   0.93276   0.92468   0.00000  Uiso   1.00
C1491  C     0.98389   0.94337   0.98017   0.00000  Uiso   1.00
C1492  C     0.88399   0.89770   0.84132   0.00000  Uiso   1.00
C1493  C     0.88399   0.89770   0.89685   0.00000  Uiso   1.00
C1494  C     0.88997   0.84944   0.92468   0.00000  Uiso   1.00
C1495  C     0.90057   0.93277   0.98016   0.00000  Uiso   1.00
C1496  C     0.91831   0.79701   0.84135   0.00000  Uiso   1.00
C1497  C     0.91831   0.79701   0.89683   0.00000  Uiso   1.00
C1498  C     0.96367   0.75164   0.92468   0.00000  Uiso   1.00
C1499  C     0.88997   0.84944   0.98017   0.00000  Uiso   1.00
C1500  C     0.01611   0.72329   0.84134   0.00000  Uiso   1.00
C1501  C     0.01611   0.72329   0.89684   0.00000  Uiso   1.00
C1502  C     0.06438   0.71731   0.92466   0.00000  Uiso   1.00
C1503  C     0.96367   0.75164   0.98017   0.00000  Uiso   1.00
C1504  C     0.09943   0.73390   0.84135   0.00000  Uiso   1.00
C1505  C     0.09943   0.73390   0.89683   0.00000  Uiso   1.00
C1506  C     0.11601   0.76896   0.92466   0.00000  Uiso   1.00
C1507  C     0.06438   0.71731   0.98019   0.00000  Uiso   1.00
C1508  C     0.11003   0.81722   0.84134   0.00000  Uiso   1.00
C1509  C     0.11003   0.81722   0.89684   0.00000  Uiso   1.00
C1510  C     0.08169   0.86965   0.92468   0.00000  Uiso   1.00
C1511  C     0.11601   0.76896   0.98019   0.00000  Uiso   1.00
C1512  C     0.08169   0.86965   0.98016   0.00000  Uiso   1.00
loop_
_geom_bond_atom_site_label_1
_geom_bond_atom_site_label_2
_geom_bond_distance
_geom_bond_site_symmetry_2
_ccdc_geom_bond_type
C1     C2      1.416   .     S
C2     C26     1.446   .     S
C3     C5      1.443   .     S
C3     C7      1.416   .     S
C4     C5      1.417   .     S
C5     C6      1.442   .     S
C6     C9      1.442   .     S
C6     C11     1.416   .     S
C7     C256    1.443   .     S
C8     C9      1.417   .     S
C9     C10     1.443   .     S
C10    C13     1.446   .     S
C10    C15     1.416   .     S
C11    C256    1.442   .     S
C11    C260    1.442   .     S
C12    C13     1.416   .     S
C13    C14     1.446   .     S
C14    C19     1.416   .     S
C15    C260    1.443   .     S
C15    C264    1.446   .     S
C16    C17     1.416   .     S
C17    C18     1.443   .     S
C18    C21     1.442   .     S
C18    C23     1.417   .     S
C19    C264    1.446   .     S
C20    C21     1.416   .     S
C21    C22     1.442   .     S
C22    C25     1.443   .     S
C22    C27     1.417   .     S
C23    C268    1.443   .     S
C23    C272    1.442   .     S
C24    C25     1.416   .     S
C25    C26     1.446   .     S
C26    C28     1.416   .     S
C27    C276    1.443   .     S
C27    C272    1.442   .     S
C28    C276    1.446   .     S
C28    C253    1.446   .     S
C29    C30     1.416   .     S
C30    C31     1.446   .     S
C30    C54     1.446   .     S
C31    C33     1.443   .     S
C31    C35     1.416   .     S
C32    C33     1.417   .     S
C33    C34     1.442   .     S
C34    C37     1.442   .     S
C34    C39     1.416   .     S
C35    C281    1.446   .     S
C35    C284    1.443   .     S
C36    C37     1.417   .     S
C37    C38     1.443   .     S
C38    C41     1.446   .     S
C38    C43     1.416   .     S
C39    C288    1.442   .     S
C39    C284    1.442   .     S
C40    C41     1.416   .     S
C41    C42     1.446   .     S
C42    C45     1.446   .     S
C42    C47     1.416   .     S
C43    C288    1.443   .     S
C43    C292    1.446   .     S
C44    C45     1.416   .     S
C45    C46     1.443   .     S
C46    C49     1.442   .     S
C46    C51     1.417   .     S
C47    C292    1.446   .     S
C47    C296    1.446   .     S
C48    C49     1.416   .     S
C49    C50     1.442   .     S
C50    C53     1.443   .     S
C50    C55     1.417   .     S
C51    C296    1.443   .     S
C51    C300    1.442   .     S
C52    C53     1.416   .     S
C53    C54     1.446   .     S
C54    C56     1.416   .     S
C55    C304    1.443   .     S
C55    C300    1.441   .     S
C56    C304    1.446   .     S
C56    C281    1.446   .     S
C57    C58     1.416   .     S
C58    C59     1.446   .     S
C58    C82     1.446   .     S
C59    C61     1.443   .     S
C59    C63     1.416   .     S
C60    C61     1.417   .     S
C61    C62     1.442   .     S
C62    C65     1.442   .     S
C62    C67     1.416   .     S
C63    C309    1.446   .     S
C63    C312    1.443   .     S
C64    C65     1.417   .     S
C65    C66     1.443   .     S
C66    C69     1.446   .     S
C66    C71     1.416   .     S
C67    C316    1.442   .     S
C67    C312    1.442   .     S
C68    C69     1.416   .     S
C69    C70     1.446   .     S
C70    C73     1.446   .     S
C70    C75     1.416   .     S
C71    C316    1.443   .     S
C71    C320    1.446   .     S
C72    C73     1.416   .     S
C73    C74     1.443   .     S
C74    C77     1.442   .     S
C74    C79     1.417   .     S
C75    C320    1.446   .     S
C75    C324    1.446   .     S
C76    C77     1.416   .     S
C77    C78     1.442   .     S
C78    C81     1.443   .     S
C78    C83     1.417   .     S
C79    C324    1.443   .     S
C79    C328    1.442   .     S
C80    C81     1.416   .     S
C81    C82     1.446   .     S
C82    C84     1.416   .     S
C83    C332    1.443   .     S
C83    C328    1.442   .     S
C84    C332    1.446   .     S
C84    C309    1.446   .     S
C85    C86     1.416   .     S
C86    C87     1.446   .     S
C86    C110    1.446   .     S
C87    C89     1.443   .     S
C87    C91     1.416   .     S
C88    C89     1.417   .     S
C89    C90     1.442   .     S
C90    C93     1.442   .     S
C90    C95     1.416   .     S
C91    C340    1.443   .     S
C91    C337    1.446   .     S
C92    C93     1.417   .     S
C93    C94     1.443   .     S
C94    C97     1.446   .     S
C94    C99     1.416   .     S
C95    C340    1.442   .     S
C95    C344    1.442   .     S
C96    C97     1.416   .     S
C97    C98     1.446   .     S
C98    C101    1.446   .     S
C98    C103    1.416   .     S
C99    C348    1.446   .     S
C99    C344    1.443   .     S
C100   C101    1.416   .     S
C101   C102    1.443   .     S
C102   C105    1.442   .     S
C102   C107    1.417   .     S
C103   C352    1.446   .     S
C103   C348    1.446   .     S
C104   C105    1.416   .     S
C105   C106    1.442   .     S
C106   C109    1.443   .     S
C106   C111    1.417   .     S
C107   C356    1.442   .     S
C107   C352    1.443   .     S
C108   C109    1.416   .     S
C109   C110    1.446   .     S
C110   C112    1.416   .     S
C111   C356    1.442   .     S
C111   C360    1.443   .     S
C112   C337    1.446   .     S
C112   C360    1.446   .     S
C113   C114    1.416   .     S
C114   C138    1.446   .     S
C115   C117    1.443   .     S
C115   C119    1.416   .     S
C116   C117    1.417   .     S
C117   C118    1.442   .     S
C118   C121    1.442   .     S
C118   C123    1.416   .     S
C119   C368    1.443   .     S
C120   C121    1.417   .     S
C121   C122    1.443   .     S
C122   C125    1.446   .     S
C122   C127    1.416   .     S
C123   C368    1.442   .     S
C123   C372    1.441   .     S
C124   C125    1.416   .     S
C125   C126    1.446   .     S
C126   C131    1.416   .     S
C127   C376    1.446   .     S
C127   C372    1.443   .     S
C128   C129    1.416   .     S
C129   C130    1.443   .     S
C130   C133    1.442   .     S
C130   C135    1.417   .     S
C131   C376    1.446   .     S
C132   C133    1.416   .     S
C133   C134    1.442   .     S
C134   C137    1.443   .     S
C134   C139    1.417   .     S
C135   C380    1.443   .     S
C135   C384    1.442   .     S
C136   C137    1.416   .     S
C137   C138    1.446   .     S
C138   C140    1.416   .     S
C139   C384    1.442   .     S
C139   C388    1.443   .     S
C140   C365    1.446   .     S
C140   C388    1.446   .     S
C141   C142    1.416   .     S
C142   C143    1.446   .     S
C142   C166    1.446   .     S
C143   C145    1.443   .     S
C143   C147    1.416   .     S
C144   C145    1.417   .     S
C145   C146    1.442   .     S
C146   C149    1.442   .     S
C146   C151    1.416   .     S
C147   C396    1.443   .     S
C147   C393    1.446   .     S
C148   C149    1.417   .     S
C149   C150    1.443   .     S
C150   C153    1.446   .     S
C150   C155    1.416   .     S
C151   C396    1.442   .     S
C151   C400    1.442   .     S
C152   C153    1.416   .     S
C153   C154    1.446   .     S
C154   C157    1.446   .     S
C154   C159    1.416   .     S
C155   C404    1.446   .     S
C155   C400    1.443   .     S
C156   C157    1.416   .     S
C157   C158    1.443   .     S
C158   C161    1.442   .     S
C158   C163    1.417   .     S
C159   C408    1.446   .     S
C159   C404    1.446   .     S
C160   C161    1.416   .     S
C161   C162    1.442   .     S
C162   C165    1.443   .     S
C162   C167    1.417   .     S
C163   C412    1.442   .     S
C163   C408    1.443   .     S
C164   C165    1.416   .     S
C165   C166    1.446   .     S
C166   C168    1.416   .     S
C167   C412    1.442   .     S
C167   C416    1.443   .     S
C168   C393    1.446   .     S
C168   C416    1.446   .     S
C169   C170    1.416   .     S
C170   C171    1.446   .     S
C170   C194    1.446   .     S
C171   C173    1.443   .     S
C171   C175    1.416   .     S
C172   C173    1.417   .     S
C173   C174    1.442   .     S
C174   C177    1.442   .     S
C174   C179    1.416   .     S
C175   C421    1.446   .     S
C175   C424    1.443   .     S
C176   C177    1.417   .     S
C177   C178    1.443   .     S
C178   C181    1.446   .     S
C178   C183    1.416   .     S
C179   C428    1.442   .     S
C179   C424    1.442   .     S
C180   C181    1.416   .     S
C181   C182    1.446   .     S
C182   C185    1.446   .     S
C182   C187    1.416   .     S
C183   C428    1.443   .     S
C183   C432    1.446   .     S
C184   C185    1.416   .     S
C185   C186    1.443   .     S
C186   C189    1.442   .     S
C186   C191    1.417   .     S
C187   C432    1.446   .     S
C187   C436    1.446   .     S
C188   C189    1.416   .     S
C189   C190    1.442   .     S
C190   C193    1.443   .     S
C190   C195    1.417   .     S
C191   C436    1.443   .     S
C191   C440    1.442   .     S
C192   C193    1.416   .     S
C193   C194    1.446   .     S
C194   C196    1.416   .     S
C195   C444    1.443   .     S
C195   C440    1.442   .     S
C196   C444    1.446   .     S
C196   C421    1.446   .     S
C197   C198    1.416   .     S
C198   C199    1.446   .     S
C198   C222    1.446   .     S
C199   C201    1.443   .     S
C199   C203    1.416   .     S
C200   C201    1.417   .     S
C201   C202    1.442   .     S
C202   C205    1.442   .     S
C202   C207    1.416   .     S
C203   C449    1.446   .     S
C203   C452    1.443   .     S
C204   C205    1.417   .     S
C205   C206    1.443   .     S
C206   C209    1.446   .     S
C206   C211    1.416   .     S
C207   C456    1.442   .     S
C207   C452    1.442   .     S
C208   C209    1.416   .     S
C209   C210    1.446   .     S
C210   C213    1.446   .     S
C210   C215    1.416   .     S
C211   C456    1.443   .     S
C211   C460    1.446   .     S
C212   C213    1.416   .     S
C213   C214    1.443   .     S
C214   C217    1.442   .     S
C214   C219    1.417   .     S
C215   C460    1.446   .     S
C215   C464    1.446   .     S
C216   C217    1.416   .     S
C217   C218    1.442   .     S
C218   C221    1.443   .     S
C218   C223    1.417   .     S
C219   C464    1.443   .     S
C219   C468    1.442   .     S
C220   C221    1.416   .     S
C221   C222    1.446   .     S
C222   C224    1.416   .     S
C223   C472    1.443   .     S
C223   C468    1.442   .     S
C224   C472    1.446   .     S
C224   C449    1.446   .     S
C225   C226    1.416   .     S
C226   C250    1.446   .     S
C227   C229    1.443   .     S
C227   C231    1.416   .     S
C228   C229    1.417   .     S
C229   C230    1.442   .     S
C230   C233    1.442   .     S
C230   C235    1.416   .     S
C231   C480    1.443   .     S
C232   C233    1.417   .     S
C233   C234    1.443   .     S
C234   C237    1.446   .     S
C234   C239    1.416   .     S
C235   C480    1.442   .     S
C235   C484    1.442   .     S
C236   C237    1.416   .     S
C237   C238    1.446   .     S
C238   C243    1.416   .     S
C239   C484    1.443   .     S
C239   C488    1.446   .     S
C240   C241    1.416   .     S
C241   C242    1.443   .     S
C242   C245    1.442   .     S
C242   C247    1.417   .     S
C243   C488    1.446   .     S
C244   C245    1.416   .     S
C245   C246    1.442   .     S
C246   C249    1.443   .     S
C246   C251    1.417   .     S
C247   C492    1.443   .     S
C247   C496    1.442   .     S
C248   C249    1.416   .     S
C249   C250    1.446   .     S
C250   C252    1.416   .     S
C251   C500    1.443   .     S
C251   C496    1.442   .     S
C252   C500    1.446   .     S
C252   C477    1.446   .     S
C253   C254    1.416   .     S
C254   C278    1.446   .     S
C255   C257    1.443   .     S
C255   C259    1.416   .     S
C256   C257    1.417   .     S
C257   C258    1.441   .     S
C258   C261    1.442   .     S
C258   C263    1.416   .     S
C259   C508    1.443   .     S
C260   C261    1.417   .     S
C261   C262    1.443   .     S
C262   C265    1.446   .     S
C262   C267    1.416   .     S
C263   C508    1.442   .     S
C263   C512    1.442   .     S
C264   C265    1.416   .     S
C265   C266    1.446   .     S
C266   C271    1.416   .     S
C267   C512    1.443   .     S
C267   C516    1.446   .     S
C268   C269    1.416   .     S
C269   C270    1.443   .     S
C270   C273    1.442   .     S
C270   C275    1.417   .     S
C271   C516    1.446   .     S
C272   C273    1.416   .     S
C273   C274    1.442   .     S
C274   C277    1.443   .     S
C274   C279    1.417   .     S
C275   C520    1.443   .     S
C275   C524    1.442   .     S
C276   C277    1.416   .     S
C277   C278    1.446   .     S
C278   C280    1.416   .     S
C279   C528    1.443   .     S
C279   C524    1.441   .     S
C280   C528    1.446   .     S
C280   C505    1.446   .     S
C281   C282    1.416   .     S
C282   C283    1.446   .     S
C282   C306    1.446   .     S
C283   C285    1.443   .     S
C283   C287    1.416   .     S
C284   C285    1.417   .     S
C285   C286    1.442   .     S
C286   C289    1.442   .     S
C286   C291    1.416   .     S
C287   C533    1.446   .     S
C287   C536    1.443   .     S
C288   C289    1.417   .     S
C289   C290    1.443   .     S
C290   C293    1.446   .     S
C290   C295    1.416   .     S
C291   C540    1.441   .     S
C291   C536    1.442   .     S
C292   C293    1.416   .     S
C293   C294    1.446   .     S
C294   C297    1.446   .     S
C294   C299    1.416   .     S
C295   C540    1.443   .     S
C295   C544    1.446   .     S
C296   C297    1.416   .     S
C297   C298    1.443   .     S
C298   C301    1.442   .     S
C298   C303    1.417   .     S
C299   C544    1.446   .     S
C299   C548    1.446   .     S
C300   C301    1.416   .     S
C301   C302    1.442   .     S
C302   C305    1.443   .     S
C302   C307    1.417   .     S
C303   C548    1.443   .     S
C303   C552    1.442   .     S
C304   C305    1.416   .     S
C305   C306    1.446   .     S
C306   C308    1.416   .     S
C307   C556    1.443   .     S
C307   C552    1.442   .     S
C308   C556    1.446   .     S
C308   C533    1.446   .     S
C309   C310    1.416   .     S
C310   C311    1.446   .     S
C310   C334    1.446   .     S
C311   C313    1.443   .     S
C311   C315    1.416   .     S
C312   C313    1.417   .     S
C313   C314    1.442   .     S
C314   C317    1.442   .     S
C314   C319    1.416   .     S
C315   C561    1.446   .     S
C315   C564    1.443   .     S
C316   C317    1.417   .     S
C317   C318    1.443   .     S
C318   C321    1.446   .     S
C318   C323    1.416   .     S
C319   C568    1.442   .     S
C319   C564    1.442   .     S
C320   C321    1.416   .     S
C321   C322    1.446   .     S
C322   C325    1.446   .     S
C322   C327    1.416   .     S
C323   C568    1.443   .     S
C323   C572    1.446   .     S
C324   C325    1.416   .     S
C325   C326    1.443   .     S
C326   C329    1.442   .     S
C326   C331    1.417   .     S
C327   C572    1.446   .     S
C327   C576    1.446   .     S
C328   C329    1.416   .     S
C329   C330    1.442   .     S
C330   C333    1.443   .     S
C330   C335    1.417   .     S
C331   C576    1.443   .     S
C331   C580    1.442   .     S
C332   C333    1.416   .     S
C333   C334    1.446   .     S
C334   C336    1.416   .     S
C335   C584    1.443   .     S
C335   C580    1.441   .     S
C336   C584    1.446   .     S
C336   C561    1.446   .     S
C337   C338    1.416   .     S
C338   C362    1.446   .     S
C338   C339    1.446   .     S
C339   C341    1.443   .     S
C339   C343    1.416   .     S
C340   C341    1.417   .     S
C341   C342    1.442   .     S
C342   C345    1.441   .     S
C342   C347    1.416   .     S
C343   C592    1.443   .     S
C343   C589    1.446   .     S
C344   C345    1.417   .     S
C345   C346    1.443   .     S
C346   C349    1.446   .     S
C346   C351    1.416   .     S
C347   C592    1.442   .     S
C347   C596    1.442   .     S
C348   C349    1.416   .     S
C349   C350    1.446   .     S
C350   C353    1.446   .     S
C350   C355    1.416   .     S
C351   C600    1.446   .     S
C351   C596    1.443   .     S
C352   C353    1.416   .     S
C353   C354    1.443   .     S
C354   C357    1.442   .     S
C354   C359    1.417   .     S
C355   C604    1.446   .     S
C355   C600    1.446   .     S
C356   C357    1.416   .     S
C357   C358    1.442   .     S
C358   C361    1.443   .     S
C358   C363    1.417   .     S
C359   C608    1.442   .     S
C359   C604    1.443   .     S
C360   C361    1.416   .     S
C361   C362    1.446   .     S
C362   C364    1.416   .     S
C363   C608    1.441   .     S
C363   C612    1.443   .     S
C364   C589    1.446   .     S
C364   C612    1.446   .     S
C365   C366    1.416   .     S
C366   C390    1.446   .     S
C367   C369    1.443   .     S
C367   C371    1.416   .     S
C368   C369    1.417   .     S
C369   C370    1.442   .     S
C370   C373    1.441   .     S
C370   C375    1.416   .     S
C371   C620    1.443   .     S
C372   C373    1.417   .     S
C373   C374    1.443   .     S
C374   C377    1.446   .     S
C374   C379    1.416   .     S
C375   C620    1.442   .     S
C375   C624    1.441   .     S
C376   C377    1.416   .     S
C377   C378    1.446   .     S
C378   C383    1.416   .     S
C379   C628    1.446   .     S
C379   C624    1.443   .     S
C380   C381    1.416   .     S
C381   C382    1.443   .     S
C382   C385    1.442   .     S
C382   C387    1.417   .     S
C383   C628    1.446   .     S
C384   C385    1.416   .     S
C385   C386    1.442   .     S
C386   C389    1.443   .     S
C386   C391    1.417   .     S
C387   C632    1.443   .     S
C387   C636    1.442   .     S
C388   C389    1.416   .     S
C389   C390    1.446   .     S
C390   C392    1.416   .     S
C391   C636    1.441   .     S
C391   C640    1.443   .     S
C392   C617    1.446   .     S
C392   C640    1.446   .     S
C393   C394    1.416   .     S
C394   C418    1.446   .     S
C394   C395    1.446   .     S
C395   C397    1.443   .     S
C395   C399    1.416   .     S
C396   C397    1.417   .     S
C397   C398    1.442   .     S
C398   C401    1.442   .     S
C398   C403    1.416   .     S
C399   C648    1.443   .     S
C399   C645    1.446   .     S
C400   C401    1.417   .     S
C401   C402    1.443   .     S
C402   C405    1.446   .     S
C402   C407    1.416   .     S
C403   C648    1.442   .     S
C403   C652    1.442   .     S
C404   C405    1.416   .     S
C405   C406    1.446   .     S
C406   C409    1.446   .     S
C406   C411    1.416   .     S
C407   C656    1.446   .     S
C407   C652    1.443   .     S
C408   C409    1.416   .     S
C409   C410    1.443   .     S
C410   C413    1.442   .     S
C410   C415    1.417   .     S
C411   C660    1.446   .     S
C411   C656    1.446   .     S
C412   C413    1.416   .     S
C413   C414    1.442   .     S
C414   C417    1.443   .     S
C414   C419    1.417   .     S
C415   C664    1.442   .     S
C415   C660    1.443   .     S
C416   C417    1.416   .     S
C417   C418    1.446   .     S
C418   C420    1.416   .     S
C419   C664    1.441   .     S
C419   C668    1.443   .     S
C420   C645    1.446   .     S
C420   C668    1.446   .     S
C421   C422    1.416   .     S
C422   C423    1.446   .     S
C422   C446    1.446   .     S
C423   C425    1.443   .     S
C423   C427    1.416   .     S
C424   C425    1.417   .     S
C425   C426    1.442   .     S
C426   C429    1.442   .     S
C426   C431    1.416   .     S
C427   C673    1.446   .     S
C427   C676    1.443   .     S
C428   C429    1.417   .     S
C429   C430    1.443   .     S
C430   C433    1.446   .     S
C430   C435    1.416   .     S
C431   C680    1.442   .     S
C431   C676    1.442   .     S
C432   C433    1.416   .     S
C433   C434    1.446   .     S
C434   C437    1.446   .     S
C434   C439    1.416   .     S
C435   C680    1.443   .     S
C435   C684    1.446   .     S
C436   C437    1.416   .     S
C437   C438    1.443   .     S
C438   C441    1.442   .     S
C438   C443    1.417   .     S
C439   C684    1.446   .     S
C439   C688    1.446   .     S
C440   C441    1.416   .     S
C441   C442    1.442   .     S
C442   C445    1.443   .     S
C442   C447    1.417   .     S
C443   C688    1.443   .     S
C443   C692    1.442   .     S
C444   C445    1.416   .     S
C445   C446    1.446   .     S
C446   C448    1.416   .     S
C447   C696    1.443   .     S
C447   C692    1.442   .     S
C448   C696    1.446   .     S
C448   C673    1.446   .     S
C449   C450    1.416   .     S
C450   C451    1.446   .     S
C450   C474    1.446   .     S
C451   C453    1.443   .     S
C451   C455    1.416   .     S
C452   C453    1.417   .     S
C453   C454    1.442   .     S
C454   C457    1.442   .     S
C454   C459    1.416   .     S
C455   C701    1.446   .     S
C455   C704    1.443   .     S
C456   C457    1.417   .     S
C457   C458    1.443   .     S
C458   C461    1.446   .     S
C458   C463    1.416   .     S
C459   C708    1.442   .     S
C459   C704    1.442   .     S
C460   C461    1.416   .     S
C461   C462    1.446   .     S
C462   C465    1.446   .     S
C462   C467    1.416   .     S
C463   C708    1.443   .     S
C463   C712    1.446   .     S
C464   C465    1.416   .     S
C465   C466    1.443   .     S
C466   C469    1.442   .     S
C466   C471    1.417   .     S
C467   C712    1.446   .     S
C467   C716    1.446   .     S
C468   C469    1.416   .     S
C469   C470    1.442   .     S
C470   C473    1.443   .     S
C470   C475    1.417   .     S
C471   C716    1.443   .     S
C471   C720    1.441   .     S
C472   C473    1.416   .     S
C473   C474    1.446   .     S
C474   C476    1.416   .     S
C475   C724    1.443   .     S
C475   C720    1.442   .     S
C476   C724    1.446   .     S
C476   C701    1.446   .     S
C477   C478    1.416   .     S
C478   C502    1.446   .     S
C479   C481    1.443   .     S
C479   C483    1.416   .     S
C480   C481    1.417   .     S
C481   C482    1.442   .     S
C482   C485    1.442   .     S
C482   C487    1.416   .     S
C483   C732    1.443   .     S
C484   C485    1.417   .     S
C485   C486    1.443   .     S
C486   C489    1.446   .     S
C486   C491    1.416   .     S
C487   C732    1.442   .     S
C487   C736    1.441   .     S
C488   C489    1.416   .     S
C489   C490    1.446   .     S
C490   C495    1.416   .     S
C491   C736    1.443   .     S
C491   C740    1.446   .     S
C492   C493    1.416   .     S
C493   C494    1.443   .     S
C494   C497    1.442   .     S
C494   C499    1.417   .     S
C495   C740    1.446   .     S
C496   C497    1.416   .     S
C497   C498    1.442   .     S
C498   C501    1.443   .     S
C498   C503    1.417   .     S
C499   C744    1.443   .     S
C499   C748    1.442   .     S
C500   C501    1.416   .     S
C501   C502    1.446   .     S
C502   C504    1.416   .     S
C503   C752    1.443   .     S
C503   C748    1.442   .     S
C504   C752    1.446   .     S
C504   C729    1.446   .     S
C505   C506    1.416   .     S
C506   C530    1.446   .     S
C507   C511    1.416   .     S
C507   C509    1.443   .     S
C508   C509    1.417   .     S
C509   C510    1.442   .     S
C510   C515    1.416   .     S
C510   C513    1.442   .     S
C511   C760    1.443   .     S
C512   C513    1.417   .     S
C513   C514    1.443   .     S
C514   C519    1.416   .     S
C514   C517    1.446   .     S
C515   C760    1.442   .     S
C515   C764    1.442   .     S
C516   C517    1.416   .     S
C517   C518    1.446   .     S
C518   C523    1.416   .     S
C519   C764    1.443   .     S
C519   C768    1.446   .     S
C520   C521    1.416   .     S
C521   C522    1.443   .     S
C522   C527    1.417   .     S
C522   C525    1.442   .     S
C523   C768    1.446   .     S
C524   C525    1.416   .     S
C525   C526    1.442   .     S
C526   C531    1.417   .     S
C526   C529    1.443   .     S
C527   C772    1.443   .     S
C527   C776    1.442   .     S
C528   C529    1.416   .     S
C529   C530    1.446   .     S
C530   C532    1.416   .     S
C531   C780    1.443   .     S
C531   C776    1.442   .     S
C532   C757    1.446   .     S
C532   C780    1.446   .     S
C533   C534    1.416   .     S
C534   C535    1.446   .     S
C534   C558    1.446   .     S
C535   C539    1.416   .     S
C535   C537    1.443   .     S
C536   C537    1.417   .     S
C537   C538    1.441   .     S
C538   C543    1.416   .     S
C538   C541    1.442   .     S
C539   C785    1.446   .     S
C539   C788    1.443   .     S
C540   C541    1.417   .     S
C541   C542    1.443   .     S
C542   C547    1.416   .     S
C542   C545    1.446   .     S
C543   C792    1.442   .     S
C543   C788    1.442   .     S
C544   C545    1.416   .     S
C545   C546    1.446   .     S
C546   C551    1.416   .     S
C546   C549    1.446   .     S
C547   C792    1.443   .     S
C547   C796    1.446   .     S
C548   C549    1.416   .     S
C549   C550    1.443   .     S
C550   C555    1.417   .     S
C550   C553    1.442   .     S
C551   C796    1.446   .     S
C551   C800    1.446   .     S
C552   C553    1.416   .     S
C553   C554    1.442   .     S
C554   C559    1.417   .     S
C554   C557    1.443   .     S
C555   C800    1.443   .     S
C555   C804    1.442   .     S
C556   C557    1.416   .     S
C557   C558    1.446   .     S
C558   C560    1.416   .     S
C559   C808    1.443   .     S
C559   C804    1.442   .     S
C560   C785    1.446   .     S
C560   C808    1.446   .     S
C561   C562    1.416   .     S
C562   C563    1.446   .     S
C562   C586    1.446   .     S
C563   C567    1.416   .     S
C563   C565    1.443   .     S
C564   C565    1.417   .     S
C565   C566    1.442   .     S
C566   C571    1.416   .     S
C566   C569    1.442   .     S
C567   C813    1.446   .     S
C567   C816    1.443   .     S
C568   C569    1.417   .     S
C569   C570    1.443   .     S
C570   C575    1.416   .     S
C570   C573    1.446   .     S
C571   C820    1.442   .     S
C571   C816    1.442   .     S
C572   C573    1.416   .     S
C573   C574    1.446   .     S
C574   C579    1.416   .     S
C574   C577    1.446   .     S
C575   C820    1.443   .     S
C575   C824    1.446   .     S
C576   C577    1.416   .     S
C577   C578    1.443   .     S
C578   C583    1.417   .     S
C578   C581    1.442   .     S
C579   C824    1.446   .     S
C579   C828    1.446   .     S
C580   C581    1.416   .     S
C581   C582    1.442   .     S
C582   C587    1.417   .     S
C582   C585    1.443   .     S
C583   C828    1.443   .     S
C583   C832    1.442   .     S
C584   C585    1.416   .     S
C585   C586    1.446   .     S
C586   C588    1.416   .     S
C587   C836    1.443   .     S
C587   C832    1.442   .     S
C588   C813    1.446   .     S
C588   C836    1.446   .     S
C589   C590    1.416   .     S
C590   C591    1.446   .     S
C590   C614    1.446   .     S
C591   C595    1.416   .     S
C591   C593    1.443   .     S
C592   C593    1.417   .     S
C593   C594    1.442   .     S
C594   C599    1.416   .     S
C594   C597    1.442   .     S
C595   C844    1.443   .     S
C595   C841    1.446   .     S
C596   C597    1.417   .     S
C597   C598    1.443   .     S
C598   C603    1.416   .     S
C598   C601    1.446   .     S
C599   C844    1.442   .     S
C599   C848    1.442   .     S
C600   C601    1.416   .     S
C601   C602    1.446   .     S
C602   C607    1.416   .     S
C602   C605    1.446   .     S
C603   C848    1.443   .     S
C603   C852    1.446   .     S
C604   C605    1.416   .     S
C605   C606    1.443   .     S
C606   C611    1.417   .     S
C606   C609    1.442   .     S
C607   C852    1.446   .     S
C607   C856    1.446   .     S
C608   C609    1.416   .     S
C609   C610    1.442   .     S
C610   C615    1.417   .     S
C610   C613    1.443   .     S
C611   C860    1.442   .     S
C611   C856    1.443   .     S
C612   C613    1.416   .     S
C613   C614    1.446   .     S
C614   C616    1.416   .     S
C615   C864    1.443   .     S
C615   C860    1.442   .     S
C616   C841    1.446   .     S
C616   C864    1.446   .     S
C617   C618    1.416   .     S
C618   C642    1.446   .     S
C619   C623    1.416   .     S
C619   C621    1.443   .     S
C620   C621    1.417   .     S
C621   C622    1.442   .     S
C622   C627    1.416   .     S
C622   C625    1.442   .     S
C623   C872    1.443   .     S
C624   C625    1.417   .     S
C625   C626    1.443   .     S
C626   C631    1.416   .     S
C626   C629    1.446   .     S
C627   C872    1.442   .     S
C627   C876    1.442   .     S
C628   C629    1.416   .     S
C629   C630    1.446   .     S
C630   C635    1.416   .     S
C631   C876    1.443   .     S
C631   C880    1.446   .     S
C632   C633    1.416   .     S
C633   C634    1.443   .     S
C634   C639    1.417   .     S
C634   C637    1.442   .     S
C635   C880    1.446   .     S
C636   C637    1.416   .     S
C637   C638    1.442   .     S
C638   C643    1.417   .     S
C638   C641    1.443   .     S
C639   C884    1.443   .     S
C639   C888    1.442   .     S
C640   C641    1.416   .     S
C641   C642    1.446   .     S
C642   C644    1.416   .     S
C643   C892    1.443   .     S
C643   C888    1.442   .     S
C644   C869    1.446   .     S
C644   C892    1.446   .     S
C645   C646    1.416   .     S
C646   C647    1.446   .     S
C646   C670    1.446   .     S
C647   C651    1.416   .     S
C647   C649    1.443   .     S
C648   C649    1.417   .     S
C649   C650    1.442   .     S
C650   C655    1.416   .     S
C650   C653    1.442   .     S
C651   C900    1.443   .     S
C651   C897    1.446   .     S
C652   C653    1.417   .     S
C653   C654    1.443   .     S
C654   C659    1.416   .     S
C654   C657    1.446   .     S
C655   C900    1.442   .     S
C655   C904    1.442   .     S
C656   C657    1.416   .     S
C657   C658    1.446   .     S
C658   C663    1.416   .     S
C658   C661    1.446   .     S
C659   C904    1.443   .     S
C659   C908    1.446   .     S
C660   C661    1.416   .     S
C661   C662    1.443   .     S
C662   C667    1.417   .     S
C662   C665    1.441   .     S
C663   C908    1.446   .     S
C663   C912    1.446   .     S
C664   C665    1.416   .     S
C665   C666    1.442   .     S
C666   C671    1.417   .     S
C666   C669    1.443   .     S
C667   C916    1.442   .     S
C667   C912    1.443   .     S
C668   C669    1.416   .     S
C669   C670    1.446   .     S
C670   C672    1.416   .     S
C671   C920    1.443   .     S
C671   C916    1.442   .     S
C672   C897    1.446   .     S
C672   C920    1.446   .     S
C673   C674    1.416   .     S
C674   C675    1.446   .     S
C674   C698    1.446   .     S
C675   C679    1.416   .     S
C675   C677    1.443   .     S
C676   C677    1.417   .     S
C677   C678    1.442   .     S
C678   C683    1.416   .     S
C678   C681    1.442   .     S
C679   C925    1.446   .     S
C679   C928    1.443   .     S
C680   C681    1.417   .     S
C681   C682    1.443   .     S
C682   C687    1.416   .     S
C682   C685    1.446   .     S
C683   C932    1.442   .     S
C683   C928    1.442   .     S
C684   C685    1.416   .     S
C685   C686    1.446   .     S
C686   C691    1.416   .     S
C686   C689    1.446   .     S
C687   C932    1.443   .     S
C687   C936    1.446   .     S
C688   C689    1.416   .     S
C689   C690    1.443   .     S
C690   C695    1.417   .     S
C690   C693    1.441   .     S
C691   C936    1.446   .     S
C691   C940    1.446   .     S
C692   C693    1.416   .     S
C693   C694    1.442   .     S
C694   C699    1.417   .     S
C694   C697    1.443   .     S
C695   C940    1.443   .     S
C695   C944    1.442   .     S
C696   C697    1.416   .     S
C697   C698    1.446   .     S
C698   C700    1.416   .     S
C699   C948    1.443   .     S
C699   C944    1.442   .     S
C700   C925    1.446   .     S
C700   C948    1.446   .     S
C701   C702    1.416   .     S
C702   C703    1.446   .     S
C702   C726    1.446   .     S
C703   C707    1.416   .     S
C703   C705    1.443   .     S
C704   C705    1.417   .     S
C705   C706    1.442   .     S
C706   C711    1.416   .     S
C706   C709    1.442   .     S
C707   C953    1.446   .     S
C707   C956    1.443   .     S
C708   C709    1.417   .     S
C709   C710    1.443   .     S
C710   C715    1.416   .     S
C710   C713    1.446   .     S
C711   C960    1.441   .     S
C711   C956    1.442   .     S
C712   C713    1.416   .     S
C713   C714    1.446   .     S
C714   C719    1.416   .     S
C714   C717    1.446   .     S
C715   C960    1.443   .     S
C715   C964    1.446   .     S
C716   C717    1.416   .     S
C717   C718    1.443   .     S
C718   C723    1.417   .     S
C718   C721    1.442   .     S
C719   C964    1.446   .     S
C719   C968    1.446   .     S
C720   C721    1.416   .     S
C721   C722    1.442   .     S
C722   C727    1.417   .     S
C722   C725    1.443   .     S
C723   C968    1.443   .     S
C723   C972    1.442   .     S
C724   C725    1.416   .     S
C725   C726    1.446   .     S
C726   C728    1.416   .     S
C727   C976    1.443   .     S
C727   C972    1.442   .     S
C728   C953    1.446   .     S
C728   C976    1.446   .     S
C729   C730    1.416   .     S
C730   C754    1.446   .     S
C731   C735    1.416   .     S
C731   C733    1.443   .     S
C732   C733    1.417   .     S
C733   C734    1.442   .     S
C734   C739    1.416   .     S
C734   C737    1.442   .     S
C735   C984    1.443   .     S
C736   C737    1.417   .     S
C737   C738    1.443   .     S
C738   C743    1.416   .     S
C738   C741    1.446   .     S
C739   C984    1.442   .     S
C739   C988    1.442   .     S
C740   C741    1.416   .     S
C741   C742    1.446   .     S
C742   C747    1.416   .     S
C743   C988    1.443   .     S
C743   C992    1.446   .     S
C744   C745    1.416   .     S
C745   C746    1.443   .     S
C746   C751    1.417   .     S
C746   C749    1.442   .     S
C747   C992    1.446   .     S
C748   C749    1.416   .     S
C749   C750    1.442   .     S
C750   C755    1.417   .     S
C750   C753    1.443   .     S
C751   C996    1.443   .     S
C751   C1000   1.442   .     S
C752   C753    1.416   .     S
C753   C754    1.446   .     S
C754   C756    1.416   .     S
C755   C1004   1.443   .     S
C755   C1000   1.442   .     S
C756   C981    1.446   .     S
C756   C1004   1.446   .     S
C757   C758    1.416   .     S
C758   C782    1.446   .     S
C759   C761    1.443   .     S
C759   C763    1.416   .     S
C760   C761    1.417   .     S
C761   C762    1.442   .     S
C762   C765    1.442   .     S
C762   C767    1.416   .     S
C763   C1012   1.443   .     S
C764   C765    1.417   .     S
C765   C766    1.443   .     S
C766   C769    1.446   .     S
C766   C771    1.416   .     S
C767   C1012   1.442   .     S
C767   C1016   1.442   .     S
C768   C769    1.416   .     S
C769   C770    1.446   .     S
C770   C775    1.416   .     S
C771   C1016   1.443   .     S
C771   C1020   1.446   .     S
C772   C773    1.416   .     S
C773   C774    1.443   .     S
C774   C777    1.442   .     S
C774   C779    1.417   .     S
C775   C1020   1.446   .     S
C776   C777    1.416   .     S
C777   C778    1.442   .     S
C778   C781    1.443   .     S
C778   C783    1.417   .     S
C779   C1024   1.443   .     S
C779   C1028   1.442   .     S
C780   C781    1.416   .     S
C781   C782    1.446   .     S
C782   C784    1.416   .     S
C783   C1032   1.443   .     S
C783   C1028   1.441   .     S
C784   C1032   1.446   .     S
C784   C1009   1.446   .     S
C785   C786    1.416   .     S
C786   C787    1.446   .     S
C786   C810    1.446   .     S
C787   C789    1.443   .     S
C787   C791    1.416   .     S
C788   C789    1.417   .     S
C789   C790    1.442   .     S
C790   C793    1.442   .     S
C790   C795    1.416   .     S
C791   C1037   1.446   .     S
C791   C1040   1.443   .     S
C792   C793    1.417   .     S
C793   C794    1.443   .     S
C794   C797    1.446   .     S
C794   C799    1.416   .     S
C795   C1044   1.442   .     S
C795   C1040   1.442   .     S
C796   C797    1.416   .     S
C797   C798    1.446   .     S
C798   C801    1.446   .     S
C798   C803    1.416   .     S
C799   C1044   1.443   .     S
C799   C1048   1.446   .     S
C800   C801    1.416   .     S
C801   C802    1.443   .     S
C802   C805    1.442   .     S
C802   C807    1.417   .     S
C803   C1048   1.446   .     S
C803   C1052   1.446   .     S
C804   C805    1.416   .     S
C805   C806    1.442   .     S
C806   C809    1.443   .     S
C806   C811    1.417   .     S
C807   C1052   1.443   .     S
C807   C1056   1.442   .     S
C808   C809    1.416   .     S
C809   C810    1.446   .     S
C810   C812    1.416   .     S
C811   C1060   1.443   .     S
C811   C1056   1.442   .     S
C812   C1060   1.446   .     S
C812   C1037   1.446   .     S
C813   C814    1.416   .     S
C814   C815    1.446   .     S
C814   C838    1.446   .     S
C815   C817    1.443   .     S
C815   C819    1.416   .     S
C816   C817    1.417   .     S
C817   C818    1.442   .     S
C818   C821    1.442   .     S
C818   C823    1.416   .     S
C819   C1065   1.446   .     S
C819   C1068   1.443   .     S
C820   C821    1.417   .     S
C821   C822    1.443   .     S
C822   C825    1.446   .     S
C822   C827    1.416   .     S
C823   C1072   1.442   .     S
C823   C1068   1.442   .     S
C824   C825    1.416   .     S
C825   C826    1.446   .     S
C826   C829    1.446   .     S
C826   C831    1.416   .     S
C827   C1072   1.443   .     S
C827   C1076   1.446   .     S
C828   C829    1.416   .     S
C829   C830    1.443   .     S
C830   C833    1.441   .     S
C830   C835    1.417   .     S
C831   C1076   1.446   .     S
C831   C1080   1.446   .     S
C832   C833    1.416   .     S
C833   C834    1.442   .     S
C834   C837    1.443   .     S
C834   C839    1.417   .     S
C835   C1080   1.443   .     S
C835   C1084   1.442   .     S
C836   C837    1.416   .     S
C837   C838    1.446   .     S
C838   C840    1.416   .     S
C839   C1088   1.443   .     S
C839   C1084   1.441   .     S
C840   C1088   1.446   .     S
C840   C1065   1.446   .     S
C841   C842    1.416   .     S
C842   C866    1.446   .     S
C842   C843    1.446   .     S
C843   C845    1.443   .     S
C843   C847    1.416   .     S
C844   C845    1.417   .     S
C845   C846    1.442   .     S
C846   C849    1.442   .     S
C846   C851    1.416   .     S
C847   C1096   1.443   .     S
C847   C1093   1.446   .     S
C848   C849    1.417   .     S
C849   C850    1.443   .     S
C850   C853    1.446   .     S
C850   C855    1.416   .     S
C851   C1096   1.442   .     S
C851   C1100   1.441   .     S
C852   C853    1.416   .     S
C853   C854    1.446   .     S
C854   C857    1.446   .     S
C854   C859    1.416   .     S
C855   C1104   1.446   .     S
C855   C1100   1.443   .     S
C856   C857    1.416   .     S
C857   C858    1.443   .     S
C858   C861    1.442   .     S
C858   C863    1.417   .     S
C859   C1108   1.446   .     S
C859   C1104   1.446   .     S
C860   C861    1.416   .     S
C861   C862    1.442   .     S
C862   C865    1.443   .     S
C862   C867    1.417   .     S
C863   C1112   1.442   .     S
C863   C1108   1.443   .     S
C864   C865    1.416   .     S
C865   C866    1.446   .     S
C866   C868    1.416   .     S
C867   C1112   1.441   .     S
C867   C1116   1.443   .     S
C868   C1093   1.446   .     S
C868   C1116   1.446   .     S
C869   C870    1.416   .     S
C870   C894    1.446   .     S
C871   C873    1.443   .     S
C871   C875    1.416   .     S
C872   C873    1.417   .     S
C873   C874    1.442   .     S
C874   C877    1.442   .     S
C874   C879    1.416   .     S
C875   C1124   1.443   .     S
C876   C877    1.417   .     S
C877   C878    1.443   .     S
C878   C881    1.446   .     S
C878   C883    1.416   .     S
C879   C1124   1.442   .     S
C879   C1128   1.441   .     S
C880   C881    1.416   .     S
C881   C882    1.446   .     S
C882   C887    1.416   .     S
C883   C1132   1.446   .     S
C883   C1128   1.443   .     S
C884   C885    1.416   .     S
C885   C886    1.443   .     S
C886   C889    1.442   .     S
C886   C891    1.417   .     S
C887   C1132   1.446   .     S
C888   C889    1.416   .     S
C889   C890    1.442   .     S
C890   C893    1.443   .     S
C890   C895    1.417   .     S
C891   C1136   1.443   .     S
C891   C1140   1.442   .     S
C892   C893    1.416   .     S
C893   C894    1.446   .     S
C894   C896    1.416   .     S
C895   C1140   1.442   .     S
C895   C1144   1.443   .     S
C896   C1121   1.446   .     S
C896   C1144   1.446   .     S
C897   C898    1.416   .     S
C898   C922    1.446   .     S
C898   C899    1.446   .     S
C899   C901    1.443   .     S
C899   C903    1.416   .     S
C900   C901    1.417   .     S
C901   C902    1.442   .     S
C902   C905    1.442   .     S
C902   C907    1.416   .     S
C903   C1152   1.443   .     S
C903   C1149   1.446   .     S
C904   C905    1.417   .     S
C905   C906    1.443   .     S
C906   C909    1.446   .     S
C906   C911    1.416   .     S
C907   C1152   1.442   .     S
C907   C1156   1.441   .     S
C908   C909    1.416   .     S
C909   C910    1.446   .     S
C910   C913    1.446   .     S
C910   C915    1.416   .     S
C911   C1160   1.446   .     S
C911   C1156   1.443   .     S
C912   C913    1.416   .     S
C913   C914    1.443   .     S
C914   C917    1.442   .     S
C914   C919    1.417   .     S
C915   C1164   1.446   .     S
C915   C1160   1.446   .     S
C916   C917    1.416   .     S
C917   C918    1.442   .     S
C918   C921    1.443   .     S
C918   C923    1.417   .     S
C919   C1168   1.442   .     S
C919   C1164   1.443   .     S
C920   C921    1.416   .     S
C921   C922    1.446   .     S
C922   C924    1.416   .     S
C923   C1168   1.442   .     S
C923   C1172   1.443   .     S
C924   C1149   1.446   .     S
C924   C1172   1.446   .     S
C925   C926    1.416   .     S
C926   C927    1.446   .     S
C926   C950    1.446   .     S
C927   C929    1.443   .     S
C927   C931    1.416   .     S
C928   C929    1.417   .     S
C929   C930    1.442   .     S
C930   C933    1.442   .     S
C930   C935    1.416   .     S
C931   C1177   1.446   .     S
C931   C1180   1.443   .     S
C932   C933    1.417   .     S
C933   C934    1.443   .     S
C934   C937    1.446   .     S
C934   C939    1.416   .     S
C935   C1184   1.441   .     S
C935   C1180   1.442   .     S
C936   C937    1.416   .     S
C937   C938    1.446   .     S
C938   C941    1.446   .     S
C938   C943    1.416   .     S
C939   C1184   1.443   .     S
C939   C1188   1.446   .     S
C940   C941    1.416   .     S
C941   C942    1.443   .     S
C942   C945    1.442   .     S
C942   C947    1.417   .     S
C943   C1188   1.446   .     S
C943   C1192   1.446   .     S
C944   C945    1.416   .     S
C945   C946    1.442   .     S
C946   C949    1.443   .     S
C946   C951    1.417   .     S
C947   C1192   1.443   .     S
C947   C1196   1.442   .     S
C948   C949    1.416   .     S
C949   C950    1.446   .     S
C950   C952    1.416   .     S
C951   C1200   1.443   .     S
C951   C1196   1.441   .     S
C952   C1200   1.446   .     S
C952   C1177   1.446   .     S
C953   C954    1.416   .     S
C954   C955    1.446   .     S
C954   C978    1.446   .     S
C955   C957    1.443   .     S
C955   C959    1.416   .     S
C956   C957    1.417   .     S
C957   C958    1.442   .     S
C958   C961    1.442   .     S
C958   C963    1.416   .     S
C959   C1205   1.446   .     S
C959   C1208   1.443   .     S
C960   C961    1.417   .     S
C961   C962    1.443   .     S
C962   C965    1.446   .     S
C962   C967    1.416   .     S
C963   C1212   1.442   .     S
C963   C1208   1.442   .     S
C964   C965    1.416   .     S
C965   C966    1.446   .     S
C966   C969    1.446   .     S
C966   C971    1.416   .     S
C967   C1212   1.443   .     S
C967   C1216   1.446   .     S
C968   C969    1.416   .     S
C969   C970    1.443   .     S
C970   C973    1.441   .     S
C970   C975    1.417   .     S
C971   C1216   1.446   .     S
C971   C1220   1.446   .     S
C972   C973    1.416   .     S
C973   C974    1.441   .     S
C974   C977    1.443   .     S
C974   C979    1.417   .     S
C975   C1220   1.443   .     S
C975   C1224   1.442   .     S
C976   C977    1.416   .     S
C977   C978    1.446   .     S
C978   C980    1.416   .     S
C979   C1228   1.443   .     S
C979   C1224   1.441   .     S
C980   C1228   1.446   .     S
C980   C1205   1.446   .     S
C981   C982    1.416   .     S
C982   C1006   1.446   .     S
C983   C985    1.443   .     S
C983   C987    1.416   .     S
C984   C985    1.417   .     S
C985   C986    1.442   .     S
C986   C989    1.442   .     S
C986   C991    1.416   .     S
C987   C1236   1.443   .     S
C988   C989    1.417   .     S
C989   C990    1.443   .     S
C990   C993    1.446   .     S
C990   C995    1.416   .     S
C991   C1236   1.442   .     S
C991   C1240   1.442   .     S
C992   C993    1.416   .     S
C993   C994    1.446   .     S
C994   C999    1.416   .     S
C995   C1240   1.443   .     S
C995   C1244   1.446   .     S
C996   C997    1.416   .     S
C997   C998    1.443   .     S
C998   C1001   1.442   .     S
C998   C1003   1.417   .     S
C999   C1244   1.446   .     S
C1000  C1001   1.416   .     S
C1001  C1002   1.442   .     S
C1002  C1005   1.443   .     S
C1002  C1007   1.417   .     S
C1003  C1248   1.443   .     S
C1003  C1252   1.442   .     S
C1004  C1005   1.416   .     S
C1005  C1006   1.446   .     S
C1006  C1008   1.416   .     S
C1007  C1256   1.443   .     S
C1007  C1252   1.442   .     S
C1008  C1256   1.446   .     S
C1008  C1233   1.446   .     S
C1009  C1010   1.416   .     S
C1010  C1034   1.446   .     S
C1011  C1013   1.443   .     S
C1011  C1015   1.416   .     S
C1012  C1013   1.417   .     S
C1013  C1014   1.442   .     S
C1014  C1017   1.442   .     S
C1014  C1019   1.416   .     S
C1015  C1264   1.443   .     S
C1016  C1017   1.417   .     S
C1017  C1018   1.443   .     S
C1018  C1021   1.446   .     S
C1018  C1023   1.416   .     S
C1019  C1264   1.442   .     S
C1019  C1268   1.441   .     S
C1020  C1021   1.416   .     S
C1021  C1022   1.446   .     S
C1022  C1027   1.416   .     S
C1023  C1268   1.443   .     S
C1023  C1272   1.446   .     S
C1024  C1025   1.416   .     S
C1025  C1026   1.443   .     S
C1026  C1029   1.442   .     S
C1026  C1031   1.417   .     S
C1027  C1272   1.446   .     S
C1028  C1029   1.416   .     S
C1029  C1030   1.442   .     S
C1030  C1033   1.443   .     S
C1030  C1035   1.417   .     S
C1031  C1276   1.443   .     S
C1031  C1280   1.442   .     S
C1032  C1033   1.416   .     S
C1033  C1034   1.446   .     S
C1034  C1036   1.416   .     S
C1035  C1284   1.443   .     S
C1035  C1280   1.442   .     S
C1036  C1261   1.446   .     S
C1036  C1284   1.446   .     S
C1037  C1038   1.416   .     S
C1038  C1039   1.446   .     S
C1038  C1062   1.446   .     S
C1039  C1041   1.443   .     S
C1039  C1043   1.416   .     S
C1040  C1041   1.417   .     S
C1041  C1042   1.442   .     S
C1042  C1045   1.442   .     S
C1042  C1047   1.416   .     S
C1043  C1289   1.446   .     S
C1043  C1292   1.443   .     S
C1044  C1045   1.417   .     S
C1045  C1046   1.443   .     S
C1046  C1049   1.446   .     S
C1046  C1051   1.416   .     S
C1047  C1296   1.442   .     S
C1047  C1292   1.442   .     S
C1048  C1049   1.416   .     S
C1049  C1050   1.446   .     S
C1050  C1053   1.446   .     S
C1050  C1055   1.416   .     S
C1051  C1296   1.443   .     S
C1051  C1300   1.446   .     S
C1052  C1053   1.416   .     S
C1053  C1054   1.443   .     S
C1054  C1057   1.442   .     S
C1054  C1059   1.417   .     S
C1055  C1300   1.446   .     S
C1055  C1304   1.446   .     S
C1056  C1057   1.416   .     S
C1057  C1058   1.442   .     S
C1058  C1061   1.443   .     S
C1058  C1063   1.417   .     S
C1059  C1304   1.443   .     S
C1059  C1308   1.442   .     S
C1060  C1061   1.416   .     S
C1061  C1062   1.446   .     S
C1062  C1064   1.416   .     S
C1063  C1312   1.443   .     S
C1063  C1308   1.441   .     S
C1064  C1289   1.446   .     S
C1064  C1312   1.446   .     S
C1065  C1066   1.416   .     S
C1066  C1067   1.446   .     S
C1066  C1090   1.446   .     S
C1067  C1069   1.443   .     S
C1067  C1071   1.416   .     S
C1068  C1069   1.417   .     S
C1069  C1070   1.442   .     S
C1070  C1073   1.442   .     S
C1070  C1075   1.416   .     S
C1071  C1317   1.446   .     S
C1071  C1320   1.443   .     S
C1072  C1073   1.417   .     S
C1073  C1074   1.443   .     S
C1074  C1077   1.446   .     S
C1074  C1079   1.416   .     S
C1075  C1324   1.441   .     S
C1075  C1320   1.442   .     S
C1076  C1077   1.416   .     S
C1077  C1078   1.446   .     S
C1078  C1081   1.446   .     S
C1078  C1083   1.416   .     S
C1079  C1324   1.443   .     S
C1079  C1328   1.446   .     S
C1080  C1081   1.416   .     S
C1081  C1082   1.443   .     S
C1082  C1085   1.442   .     S
C1082  C1087   1.417   .     S
C1083  C1328   1.446   .     S
C1083  C1332   1.446   .     S
C1084  C1085   1.416   .     S
C1085  C1086   1.442   .     S
C1086  C1089   1.443   .     S
C1086  C1091   1.417   .     S
C1087  C1332   1.443   .     S
C1087  C1336   1.442   .     S
C1088  C1089   1.416   .     S
C1089  C1090   1.446   .     S
C1090  C1092   1.416   .     S
C1091  C1340   1.443   .     S
C1091  C1336   1.442   .     S
C1092  C1317   1.446   .     S
C1092  C1340   1.446   .     S
C1093  C1094   1.416   .     S
C1094  C1118   1.446   .     S
C1094  C1095   1.446   .     S
C1095  C1097   1.443   .     S
C1095  C1099   1.416   .     S
C1096  C1097   1.417   .     S
C1097  C1098   1.442   .     S
C1098  C1101   1.442   .     S
C1098  C1103   1.416   .     S
C1099  C1348   1.443   .     S
C1099  C1345   1.446   .     S
C1100  C1101   1.417   .     S
C1101  C1102   1.443   .     S
C1102  C1105   1.446   .     S
C1102  C1107   1.416   .     S
C1103  C1348   1.442   .     S
C1103  C1352   1.442   .     S
C1104  C1105   1.416   .     S
C1105  C1106   1.446   .     S
C1106  C1109   1.446   .     S
C1106  C1111   1.416   .     S
C1107  C1352   1.443   .     S
C1107  C1356   1.446   .     S
C1108  C1109   1.416   .     S
C1109  C1110   1.443   .     S
C1110  C1113   1.442   .     S
C1110  C1115   1.417   .     S
C1111  C1356   1.446   .     S
C1111  C1360   1.446   .     S
C1112  C1113   1.416   .     S
C1113  C1114   1.442   .     S
C1114  C1117   1.443   .     S
C1114  C1119   1.417   .     S
C1115  C1364   1.442   .     S
C1115  C1360   1.443   .     S
C1116  C1117   1.416   .     S
C1117  C1118   1.446   .     S
C1118  C1120   1.416   .     S
C1119  C1368   1.443   .     S
C1119  C1364   1.441   .     S
C1120  C1345   1.446   .     S
C1120  C1368   1.446   .     S
C1121  C1122   1.416   .     S
C1122  C1146   1.446   .     S
C1123  C1125   1.443   .     S
C1123  C1127   1.416   .     S
C1124  C1125   1.417   .     S
C1125  C1126   1.442   .     S
C1126  C1129   1.442   .     S
C1126  C1131   1.416   .     S
C1127  C1376   1.443   .     S
C1128  C1129   1.417   .     S
C1129  C1130   1.443   .     S
C1130  C1133   1.446   .     S
C1130  C1135   1.416   .     S
C1131  C1376   1.442   .     S
C1131  C1380   1.441   .     S
C1132  C1133   1.416   .     S
C1133  C1134   1.446   .     S
C1134  C1139   1.416   .     S
C1135  C1380   1.443   .     S
C1135  C1384   1.446   .     S
C1136  C1137   1.416   .     S
C1137  C1138   1.443   .     S
C1138  C1141   1.442   .     S
C1138  C1143   1.417   .     S
C1139  C1384   1.446   .     S
C1140  C1141   1.416   .     S
C1141  C1142   1.442   .     S
C1142  C1145   1.443   .     S
C1142  C1147   1.417   .     S
C1143  C1388   1.443   .     S
C1143  C1392   1.442   .     S
C1144  C1145   1.416   .     S
C1145  C1146   1.446   .     S
C1146  C1148   1.416   .     S
C1147  C1396   1.443   .     S
C1147  C1392   1.441   .     S
C1148  C1373   1.446   .     S
C1148  C1396   1.446   .     S
C1149  C1150   1.416   .     S
C1150  C1174   1.446   .     S
C1150  C1151   1.446   .     S
C1151  C1153   1.443   .     S
C1151  C1155   1.416   .     S
C1152  C1153   1.417   .     S
C1153  C1154   1.442   .     S
C1154  C1157   1.442   .     S
C1154  C1159   1.416   .     S
C1155  C1404   1.443   .     S
C1155  C1401   1.446   .     S
C1156  C1157   1.417   .     S
C1157  C1158   1.443   .     S
C1158  C1161   1.446   .     S
C1158  C1163   1.416   .     S
C1159  C1404   1.442   .     S
C1159  C1408   1.442   .     S
C1160  C1161   1.416   .     S
C1161  C1162   1.446   .     S
C1162  C1165   1.446   .     S
C1162  C1167   1.416   .     S
C1163  C1408   1.443   .     S
C1163  C1412   1.446   .     S
C1164  C1165   1.416   .     S
C1165  C1166   1.443   .     S
C1166  C1169   1.442   .     S
C1166  C1171   1.417   .     S
C1167  C1412   1.446   .     S
C1167  C1416   1.446   .     S
C1168  C1169   1.416   .     S
C1169  C1170   1.442   .     S
C1170  C1173   1.443   .     S
C1170  C1175   1.417   .     S
C1171  C1420   1.442   .     S
C1171  C1416   1.443   .     S
C1172  C1173   1.416   .     S
C1173  C1174   1.446   .     S
C1174  C1176   1.416   .     S
C1175  C1424   1.443   .     S
C1175  C1420   1.442   .     S
C1176  C1401   1.446   .     S
C1176  C1424   1.446   .     S
C1177  C1178   1.416   .     S
C1178  C1179   1.446   .     S
C1178  C1202   1.446   .     S
C1179  C1181   1.443   .     S
C1179  C1183   1.416   .     S
C1180  C1181   1.417   .     S
C1181  C1182   1.442   .     S
C1182  C1185   1.442   .     S
C1182  C1187   1.416   .     S
C1183  C1429   1.446   .     S
C1183  C1432   1.443   .     S
C1184  C1185   1.417   .     S
C1185  C1186   1.443   .     S
C1186  C1189   1.446   .     S
C1186  C1191   1.416   .     S
C1187  C1436   1.442   .     S
C1187  C1432   1.442   .     S
C1188  C1189   1.416   .     S
C1189  C1190   1.446   .     S
C1190  C1193   1.446   .     S
C1190  C1195   1.416   .     S
C1191  C1436   1.443   .     S
C1191  C1440   1.446   .     S
C1192  C1193   1.416   .     S
C1193  C1194   1.443   .     S
C1194  C1197   1.442   .     S
C1194  C1199   1.417   .     S
C1195  C1440   1.446   .     S
C1195  C1444   1.446   .     S
C1196  C1197   1.416   .     S
C1197  C1198   1.442   .     S
C1198  C1201   1.443   .     S
C1198  C1203   1.417   .     S
C1199  C1444   1.443   .     S
C1199  C1448   1.442   .     S
C1200  C1201   1.416   .     S
C1201  C1202   1.446   .     S
C1202  C1204   1.416   .     S
C1203  C1452   1.443   .     S
C1203  C1448   1.441   .     S
C1204  C1429   1.446   .     S
C1204  C1452   1.446   .     S
C1205  C1206   1.416   .     S
C1206  C1207   1.446   .     S
C1206  C1230   1.446   .     S
C1207  C1209   1.443   .     S
C1207  C1211   1.416   .     S
C1208  C1209   1.417   .     S
C1209  C1210   1.442   .     S
C1210  C1213   1.442   .     S
C1210  C1215   1.416   .     S
C1211  C1457   1.446   .     S
C1211  C1460   1.443   .     S
C1212  C1213   1.417   .     S
C1213  C1214   1.443   .     S
C1214  C1217   1.446   .     S
C1214  C1219   1.416   .     S
C1215  C1464   1.441   .     S
C1215  C1460   1.442   .     S
C1216  C1217   1.416   .     S
C1217  C1218   1.446   .     S
C1218  C1221   1.446   .     S
C1218  C1223   1.416   .     S
C1219  C1464   1.443   .     S
C1219  C1468   1.446   .     S
C1220  C1221   1.416   .     S
C1221  C1222   1.443   .     S
C1222  C1225   1.442   .     S
C1222  C1227   1.417   .     S
C1223  C1468   1.446   .     S
C1223  C1472   1.446   .     S
C1224  C1225   1.416   .     S
C1225  C1226   1.442   .     S
C1226  C1229   1.443   .     S
C1226  C1231   1.417   .     S
C1227  C1472   1.443   .     S
C1227  C1476   1.442   .     S
C1228  C1229   1.416   .     S
C1229  C1230   1.446   .     S
C1230  C1232   1.416   .     S
C1231  C1480   1.443   .     S
C1231  C1476   1.442   .     S
C1232  C1457   1.446   .     S
C1232  C1480   1.446   .     S
C1233  C1234   1.416   .     S
C1234  C1258   1.446   .     S
C1235  C1237   1.443   .     S
C1235  C1239   1.416   .     S
C1236  C1237   1.417   .     S
C1237  C1238   1.442   .     S
C1238  C1241   1.442   .     S
C1238  C1243   1.416   .     S
C1239  C1488   1.443   .     S
C1240  C1241   1.417   .     S
C1241  C1242   1.443   .     S
C1242  C1245   1.446   .     S
C1242  C1247   1.416   .     S
C1243  C1488   1.442   .     S
C1243  C1492   1.441   .     S
C1244  C1245   1.416   .     S
C1245  C1246   1.446   .     S
C1246  C1251   1.416   .     S
C1247  C1492   1.443   .     S
C1247  C1496   1.446   .     S
C1248  C1249   1.416   .     S
C1249  C1250   1.443   .     S
C1250  C1253   1.442   .     S
C1250  C1255   1.417   .     S
C1251  C1496   1.446   .     S
C1252  C1253   1.416   .     S
C1253  C1254   1.442   .     S
C1254  C1257   1.443   .     S
C1254  C1259   1.417   .     S
C1255  C1500   1.443   .     S
C1255  C1504   1.442   .     S
C1256  C1257   1.416   .     S
C1257  C1258   1.446   .     S
C1258  C1260   1.416   .     S
C1259  C1508   1.443   .     S
C1259  C1504   1.441   .     S
C1260  C1485   1.446   .     S
C1260  C1508   1.446   .     S
C1261  C1262   1.416   .     S
C1262  C1286   1.446   .     S
C1263  C1265   1.443   .     S
C1263  C1267   1.416   .     S
C1264  C1265   1.417   .     S
C1265  C1266   1.442   .     S
C1266  C1269   1.442   .     S
C1266  C1271   1.416   .     S
C1268  C1269   1.417   .     S
C1269  C1270   1.443   .     S
C1270  C1273   1.446   .     S
C1270  C1275   1.416   .     S
C1272  C1273   1.416   .     S
C1273  C1274   1.446   .     S
C1274  C1279   1.416   .     S
C1276  C1277   1.416   .     S
C1277  C1278   1.443   .     S
C1278  C1281   1.442   .     S
C1278  C1283   1.417   .     S
C1280  C1281   1.416   .     S
C1281  C1282   1.442   .     S
C1282  C1285   1.443   .     S
C1282  C1287   1.417   .     S
C1284  C1285   1.416   .     S
C1285  C1286   1.446   .     S
C1286  C1288   1.416   .     S
C1289  C1290   1.416   .     S
C1290  C1291   1.446   .     S
C1290  C1314   1.446   .     S
C1291  C1293   1.443   .     S
C1291  C1295   1.416   .     S
C1292  C1293   1.417   .     S
C1293  C1294   1.442   .     S
C1294  C1297   1.442   .     S
C1294  C1299   1.416   .     S
C1296  C1297   1.417   .     S
C1297  C1298   1.443   .     S
C1298  C1301   1.446   .     S
C1298  C1303   1.416   .     S
C1300  C1301   1.416   .     S
C1301  C1302   1.446   .     S
C1302  C1305   1.446   .     S
C1302  C1307   1.416   .     S
C1304  C1305   1.416   .     S
C1305  C1306   1.443   .     S
C1306  C1309   1.442   .     S
C1306  C1311   1.417   .     S
C1308  C1309   1.416   .     S
C1309  C1310   1.442   .     S
C1310  C1313   1.443   .     S
C1310  C1315   1.417   .     S
C1312  C1313   1.416   .     S
C1313  C1314   1.446   .     S
C1314  C1316   1.416   .     S
C1317  C1318   1.416   .     S
C1318  C1319   1.446   .     S
C1318  C1342   1.446   .     S
C1319  C1321   1.443   .     S
C1319  C1323   1.416   .     S
C1320  C1321   1.417   .     S
C1321  C1322   1.442   .     S
C1322  C1325   1.442   .     S
C1322  C1327   1.416   .     S
C1324  C1325   1.417   .     S
C1325  C1326   1.443   .     S
C1326  C1329   1.446   .     S
C1326  C1331   1.416   .     S
C1328  C1329   1.416   .     S
C1329  C1330   1.446   .     S
C1330  C1333   1.446   .     S
C1330  C1335   1.416   .     S
C1332  C1333   1.416   .     S
C1333  C1334   1.443   .     S
C1334  C1337   1.442   .     S
C1334  C1339   1.417   .     S
C1336  C1337   1.416   .     S
C1337  C1338   1.442   .     S
C1338  C1341   1.443   .     S
C1338  C1343   1.417   .     S
C1340  C1341   1.416   .     S
C1341  C1342   1.446   .     S
C1342  C1344   1.416   .     S
C1345  C1346   1.416   .     S
C1346  C1347   1.446   .     S
C1346  C1370   1.446   .     S
C1347  C1349   1.443   .     S
C1347  C1351   1.416   .     S
C1348  C1349   1.417   .     S
C1349  C1350   1.442   .     S
C1350  C1353   1.442   .     S
C1350  C1355   1.416   .     S
C1352  C1353   1.417   .     S
C1353  C1354   1.443   .     S
C1354  C1357   1.446   .     S
C1354  C1359   1.416   .     S
C1356  C1357   1.416   .     S
C1357  C1358   1.446   .     S
C1358  C1361   1.446   .     S
C1358  C1363   1.416   .     S
C1360  C1361   1.416   .     S
C1361  C1362   1.443   .     S
C1362  C1365   1.442   .     S
C1362  C1367   1.417   .     S
C1364  C1365   1.416   .     S
C1365  C1366   1.442   .     S
C1366  C1369   1.443   .     S
C1366  C1371   1.417   .     S
C1368  C1369   1.416   .     S
C1369  C1370   1.446   .     S
C1370  C1372   1.416   .     S
C1373  C1374   1.416   .     S
C1374  C1398   1.446   .     S
C1375  C1377   1.443   .     S
C1375  C1379   1.416   .     S
C1376  C1377   1.417   .     S
C1377  C1378   1.442   .     S
C1378  C1381   1.442   .     S
C1378  C1383   1.416   .     S
C1380  C1381   1.417   .     S
C1381  C1382   1.443   .     S
C1382  C1385   1.446   .     S
C1382  C1387   1.416   .     S
C1384  C1385   1.416   .     S
C1385  C1386   1.446   .     S
C1386  C1391   1.416   .     S
C1388  C1389   1.416   .     S
C1389  C1390   1.443   .     S
C1390  C1393   1.442   .     S
C1390  C1395   1.417   .     S
C1392  C1393   1.416   .     S
C1393  C1394   1.442   .     S
C1394  C1397   1.443   .     S
C1394  C1399   1.417   .     S
C1396  C1397   1.416   .     S
C1397  C1398   1.446   .     S
C1398  C1400   1.416   .     S
C1401  C1402   1.416   .     S
C1402  C1403   1.446   .     S
C1402  C1426   1.446   .     S
C1403  C1405   1.443   .     S
C1403  C1407   1.416   .     S
C1404  C1405   1.417   .     S
C1405  C1406   1.442   .     S
C1406  C1409   1.442   .     S
C1406  C1411   1.416   .     S
C1408  C1409   1.417   .     S
C1409  C1410   1.443   .     S
C1410  C1413   1.446   .     S
C1410  C1415   1.416   .     S
C1412  C1413   1.416   .     S
C1413  C1414   1.446   .     S
C1414  C1417   1.446   .     S
C1414  C1419   1.416   .     S
C1416  C1417   1.416   .     S
C1417  C1418   1.443   .     S
C1418  C1421   1.441   .     S
C1418  C1423   1.417   .     S
C1420  C1421   1.416   .     S
C1421  C1422   1.442   .     S
C1422  C1425   1.443   .     S
C1422  C1427   1.417   .     S
C1424  C1425   1.416   .     S
C1425  C1426   1.446   .     S
C1426  C1428   1.416   .     S
C1429  C1430   1.416   .     S
C1430  C1431   1.446   .     S
C1430  C1454   1.446   .     S
C1431  C1433   1.443   .     S
C1431  C1435   1.416   .     S
C1432  C1433   1.417   .     S
C1433  C1434   1.442   .     S
C1434  C1437   1.442   .     S
C1434  C1439   1.416   .     S
C1436  C1437   1.417   .     S
C1437  C1438   1.443   .     S
C1438  C1441   1.446   .     S
C1438  C1443   1.416   .     S
C1440  C1441   1.416   .     S
C1441  C1442   1.446   .     S
C1442  C1445   1.446   .     S
C1442  C1447   1.416   .     S
C1444  C1445   1.416   .     S
C1445  C1446   1.443   .     S
C1446  C1449   1.442   .     S
C1446  C1451   1.417   .     S
C1448  C1449   1.416   .     S
C1449  C1450   1.442   .     S
C1450  C1453   1.443   .     S
C1450  C1455   1.417   .     S
C1452  C1453   1.416   .     S
C1453  C1454   1.446   .     S
C1454  C1456   1.416   .     S
C1457  C1458   1.416   .     S
C1458  C1459   1.446   .     S
C1458  C1482   1.446   .     S
C1459  C1461   1.443   .     S
C1459  C1463   1.416   .     S
C1460  C1461   1.417   .     S
C1461  C1462   1.442   .     S
C1462  C1465   1.442   .     S
C1462  C1467   1.416   .     S
C1464  C1465   1.417   .     S
C1465  C1466   1.443   .     S
C1466  C1469   1.446   .     S
C1466  C1471   1.416   .     S
C1468  C1469   1.416   .     S
C1469  C1470   1.446   .     S
C1470  C1473   1.446   .     S
C1470  C1475   1.416   .     S
C1472  C1473   1.416   .     S
C1473  C1474   1.443   .     S
C1474  C1477   1.442   .     S
C1474  C1479   1.417   .     S
C1476  C1477   1.416   .     S
C1477  C1478   1.442   .     S
C1478  C1481   1.443   .     S
C1478  C1483   1.417   .     S
C1480  C1481   1.416   .     S
C1481  C1482   1.446   .     S
C1482  C1484   1.416   .     S
C1485  C1486   1.416   .     S
C1486  C1510   1.446   .     S
C1487  C1489   1.443   .     S
C1487  C1491   1.416   .     S
C1488  C1489   1.417   .     S
C1489  C1490   1.442   .     S
C1490  C1493   1.442   .     S
C1490  C1495   1.416   .     S
C1492  C1493   1.417   .     S
C1493  C1494   1.443   .     S
C1494  C1497   1.446   .     S
C1494  C1499   1.416   .     S
C1496  C1497   1.416   .     S
C1497  C1498   1.446   .     S
C1498  C1503   1.416   .     S
C1500  C1501   1.416   .     S
C1501  C1502   1.443   .     S
C1502  C1505   1.442   .     S
C1502  C1507   1.417   .     S
C1504  C1505   1.416   .     S
C1505  C1506   1.441   .     S
C1506  C1509   1.443   .     S
C1506  C1511   1.417   .     S
C1508  C1509   1.416   .     S
C1509  C1510   1.446   .     S
C1510  C1512   1.416   .     S
