data_80
_audit_creation_date              2023-12-23
_audit_creation_method            'Materials Studio'
_symmetry_space_group_name_H-M    'P1'
_symmetry_Int_Tables_number       1
_symmetry_cell_setting            triclinic
loop_
_symmetry_equiv_pos_as_xyz
  x,y,z
_cell_length_a                    19.1156
_cell_length_b                    19.1113
_cell_length_c                    25.4829
_cell_angle_alpha                 90.0049
_cell_angle_beta                  90.0030
_cell_angle_gamma                 63.4885
loop_
_atom_site_label
_atom_site_type_symbol
_atom_site_fract_x
_atom_site_fract_y
_atom_site_fract_z
_atom_site_U_iso_or_equiv
_atom_site_adp_type
_atom_site_occupancy
C1     C     0.06450   0.37637   0.07839   0.00000  Uiso   1.00
C2     C     0.06450   0.37637   0.13401   0.00000  Uiso   1.00
C3     C     0.99259   0.42025   0.16176   0.00000  Uiso   1.00
C4     C     0.99259   0.42025   0.05064   0.00000  Uiso   1.00
C5     C     0.92118   0.43801   0.07838   0.00000  Uiso   1.00
C6     C     0.92118   0.43801   0.13401   0.00000  Uiso   1.00
C7     C     0.86109   0.42756   0.16175   0.00000  Uiso   1.00
C8     C     0.86109   0.42756   0.05064   0.00000  Uiso   1.00
C9     C     0.82246   0.38895   0.07842   0.00000  Uiso   1.00
C10    C     0.82246   0.38895   0.13398   0.00000  Uiso   1.00
C11    C     0.81199   0.32886   0.16171   0.00000  Uiso   1.00
C12    C     0.81199   0.32886   0.05068   0.00000  Uiso   1.00
C13    C     0.82973   0.25744   0.07842   0.00000  Uiso   1.00
C14    C     0.82973   0.25744   0.13396   0.00000  Uiso   1.00
C15    C     0.87362   0.18550   0.16171   0.00000  Uiso   1.00
C16    C     0.87362   0.18550   0.05067   0.00000  Uiso   1.00
C17    C     0.93550   0.12363   0.07838   0.00000  Uiso   1.00
C18    C     0.93549   0.12363   0.13400   0.00000  Uiso   1.00
C19    C     0.00742   0.07975   0.16176   0.00000  Uiso   1.00
C20    C     0.00742   0.07975   0.05063   0.00000  Uiso   1.00
C21    C     0.07882   0.06199   0.07838   0.00000  Uiso   1.00
C22    C     0.07882   0.06199   0.13401   0.00000  Uiso   1.00
C23    C     0.13891   0.07244   0.16175   0.00000  Uiso   1.00
C24    C     0.13891   0.07244   0.05064   0.00000  Uiso   1.00
C25    C     0.17754   0.11104   0.07842   0.00000  Uiso   1.00
C26    C     0.17754   0.11104   0.13398   0.00000  Uiso   1.00
C27    C     0.18801   0.17114   0.16172   0.00000  Uiso   1.00
C28    C     0.18802   0.17114   0.05068   0.00000  Uiso   1.00
C29    C     0.17026   0.24256   0.07843   0.00000  Uiso   1.00
C30    C     0.17026   0.24256   0.13397   0.00000  Uiso   1.00
C31    C     0.12638   0.31450   0.16172   0.00000  Uiso   1.00
C32    C     0.12638   0.31449   0.05068   0.00000  Uiso   1.00
C33    C     0.56450   0.37637   0.07839   0.00000  Uiso   1.00
C34    C     0.56450   0.37637   0.13401   0.00000  Uiso   1.00
C35    C     0.49259   0.42025   0.16176   0.00000  Uiso   1.00
C36    C     0.49259   0.42025   0.05064   0.00000  Uiso   1.00
C37    C     0.42118   0.43801   0.07838   0.00000  Uiso   1.00
C38    C     0.42118   0.43801   0.13401   0.00000  Uiso   1.00
C39    C     0.36109   0.42755   0.16175   0.00000  Uiso   1.00
C40    C     0.36109   0.42755   0.05064   0.00000  Uiso   1.00
C41    C     0.32246   0.38895   0.07842   0.00000  Uiso   1.00
C42    C     0.32246   0.38895   0.13398   0.00000  Uiso   1.00
C43    C     0.31199   0.32886   0.16171   0.00000  Uiso   1.00
C44    C     0.31199   0.32886   0.05068   0.00000  Uiso   1.00
C45    C     0.32973   0.25743   0.07842   0.00000  Uiso   1.00
C46    C     0.32973   0.25743   0.13396   0.00000  Uiso   1.00
C47    C     0.37362   0.18550   0.16171   0.00000  Uiso   1.00
C48    C     0.37362   0.18550   0.05067   0.00000  Uiso   1.00
C49    C     0.43550   0.12363   0.07838   0.00000  Uiso   1.00
C50    C     0.43550   0.12363   0.13400   0.00000  Uiso   1.00
C51    C     0.50741   0.07975   0.16176   0.00000  Uiso   1.00
C52    C     0.50742   0.07975   0.05063   0.00000  Uiso   1.00
C53    C     0.57882   0.06199   0.07838   0.00000  Uiso   1.00
C54    C     0.57882   0.06199   0.13401   0.00000  Uiso   1.00
C55    C     0.63891   0.07245   0.16175   0.00000  Uiso   1.00
C56    C     0.63891   0.07245   0.05064   0.00000  Uiso   1.00
C57    C     0.67754   0.11105   0.07842   0.00000  Uiso   1.00
C58    C     0.67754   0.11105   0.13398   0.00000  Uiso   1.00
C59    C     0.68801   0.17114   0.16172   0.00000  Uiso   1.00
C60    C     0.68801   0.17114   0.05068   0.00000  Uiso   1.00
C61    C     0.67027   0.24256   0.07843   0.00000  Uiso   1.00
C62    C     0.67027   0.24256   0.13397   0.00000  Uiso   1.00
C63    C     0.62638   0.31450   0.16172   0.00000  Uiso   1.00
C64    C     0.62638   0.31450   0.05068   0.00000  Uiso   1.00
C65    C     0.56450   0.87637   0.07839   0.00000  Uiso   1.00
C66    C     0.56450   0.87637   0.13401   0.00000  Uiso   1.00
C67    C     0.49259   0.92025   0.16176   0.00000  Uiso   1.00
C68    C     0.49259   0.92025   0.05064   0.00000  Uiso   1.00
C69    C     0.42118   0.93801   0.07838   0.00000  Uiso   1.00
C70    C     0.42118   0.93801   0.13401   0.00000  Uiso   1.00
C71    C     0.36109   0.92755   0.16175   0.00000  Uiso   1.00
C72    C     0.36109   0.92755   0.05064   0.00000  Uiso   1.00
C73    C     0.32246   0.88895   0.07842   0.00000  Uiso   1.00
C74    C     0.32246   0.88895   0.13398   0.00000  Uiso   1.00
C75    C     0.31199   0.82886   0.16171   0.00000  Uiso   1.00
C76    C     0.31199   0.82886   0.05068   0.00000  Uiso   1.00
C77    C     0.32973   0.75743   0.07842   0.00000  Uiso   1.00
C78    C     0.32973   0.75743   0.13396   0.00000  Uiso   1.00
C79    C     0.37362   0.68550   0.16171   0.00000  Uiso   1.00
C80    C     0.37362   0.68550   0.05067   0.00000  Uiso   1.00
C81    C     0.43550   0.62363   0.07838   0.00000  Uiso   1.00
C82    C     0.43550   0.62363   0.13400   0.00000  Uiso   1.00
C83    C     0.50742   0.57975   0.16176   0.00000  Uiso   1.00
C84    C     0.50742   0.57975   0.05063   0.00000  Uiso   1.00
C85    C     0.57882   0.56199   0.07838   0.00000  Uiso   1.00
C86    C     0.57882   0.56199   0.13401   0.00000  Uiso   1.00
C87    C     0.63891   0.57244   0.16175   0.00000  Uiso   1.00
C88    C     0.63891   0.57244   0.05064   0.00000  Uiso   1.00
C89    C     0.67754   0.61105   0.07842   0.00000  Uiso   1.00
C90    C     0.67754   0.61105   0.13398   0.00000  Uiso   1.00
C91    C     0.68801   0.67114   0.16172   0.00000  Uiso   1.00
C92    C     0.68801   0.67114   0.05068   0.00000  Uiso   1.00
C93    C     0.67026   0.74256   0.07843   0.00000  Uiso   1.00
C94    C     0.67026   0.74256   0.13397   0.00000  Uiso   1.00
C95    C     0.62638   0.81450   0.16172   0.00000  Uiso   1.00
C96    C     0.62638   0.81450   0.05068   0.00000  Uiso   1.00
C97    C     0.06450   0.87637   0.07839   0.00000  Uiso   1.00
C98    C     0.06450   0.87637   0.13401   0.00000  Uiso   1.00
C99    C     0.99259   0.92025   0.16176   0.00000  Uiso   1.00
C100   C     0.99259   0.92025   0.05064   0.00000  Uiso   1.00
C101   C     0.92118   0.93801   0.07838   0.00000  Uiso   1.00
C102   C     0.92118   0.93800   0.13401   0.00000  Uiso   1.00
C103   C     0.86109   0.92755   0.16175   0.00000  Uiso   1.00
C104   C     0.86109   0.92755   0.05064   0.00000  Uiso   1.00
C105   C     0.82246   0.88895   0.07842   0.00000  Uiso   1.00
C106   C     0.82246   0.88895   0.13397   0.00000  Uiso   1.00
C107   C     0.81198   0.82886   0.16171   0.00000  Uiso   1.00
C108   C     0.81199   0.82886   0.05068   0.00000  Uiso   1.00
C109   C     0.82973   0.75743   0.07842   0.00000  Uiso   1.00
C110   C     0.82973   0.75743   0.13396   0.00000  Uiso   1.00
C111   C     0.87362   0.68550   0.16171   0.00000  Uiso   1.00
C112   C     0.87362   0.68550   0.05067   0.00000  Uiso   1.00
C113   C     0.93550   0.62363   0.07838   0.00000  Uiso   1.00
C114   C     0.93550   0.62363   0.13400   0.00000  Uiso   1.00
C115   C     0.00742   0.57975   0.16176   0.00000  Uiso   1.00
C116   C     0.00742   0.57975   0.05063   0.00000  Uiso   1.00
C117   C     0.07882   0.56199   0.07838   0.00000  Uiso   1.00
C118   C     0.07882   0.56199   0.13401   0.00000  Uiso   1.00
C119   C     0.13891   0.57244   0.16175   0.00000  Uiso   1.00
C120   C     0.13891   0.57244   0.05064   0.00000  Uiso   1.00
C121   C     0.17754   0.61104   0.07842   0.00000  Uiso   1.00
C122   C     0.17754   0.61104   0.13398   0.00000  Uiso   1.00
C123   C     0.18801   0.67114   0.16172   0.00000  Uiso   1.00
C124   C     0.18802   0.67114   0.05068   0.00000  Uiso   1.00
C125   C     0.17027   0.74256   0.07843   0.00000  Uiso   1.00
C126   C     0.17027   0.74256   0.13397   0.00000  Uiso   1.00
C127   C     0.12638   0.81450   0.16172   0.00000  Uiso   1.00
C128   C     0.12638   0.81450   0.05068   0.00000  Uiso   1.00
C129   C     0.06450   0.37637   0.24505   0.00000  Uiso   1.00
C130   C     0.06450   0.37637   0.30068   0.00000  Uiso   1.00
C131   C     0.99259   0.42025   0.32843   0.00000  Uiso   1.00
C132   C     0.99258   0.42025   0.21730   0.00000  Uiso   1.00
C133   C     0.92118   0.43801   0.24505   0.00000  Uiso   1.00
C134   C     0.92118   0.43801   0.30068   0.00000  Uiso   1.00
C135   C     0.86109   0.42756   0.32842   0.00000  Uiso   1.00
C136   C     0.86109   0.42756   0.21731   0.00000  Uiso   1.00
C137   C     0.82246   0.38895   0.24508   0.00000  Uiso   1.00
C138   C     0.82246   0.38895   0.30064   0.00000  Uiso   1.00
C139   C     0.81199   0.32886   0.32838   0.00000  Uiso   1.00
C140   C     0.81199   0.32886   0.21734   0.00000  Uiso   1.00
C141   C     0.82974   0.25744   0.24509   0.00000  Uiso   1.00
C142   C     0.82974   0.25744   0.30063   0.00000  Uiso   1.00
C143   C     0.87362   0.18550   0.32838   0.00000  Uiso   1.00
C144   C     0.87362   0.18550   0.21734   0.00000  Uiso   1.00
C145   C     0.93550   0.12363   0.24505   0.00000  Uiso   1.00
C146   C     0.93550   0.12363   0.30067   0.00000  Uiso   1.00
C147   C     0.00742   0.07975   0.32842   0.00000  Uiso   1.00
C148   C     0.00742   0.07975   0.21730   0.00000  Uiso   1.00
C149   C     0.07882   0.06199   0.24504   0.00000  Uiso   1.00
C150   C     0.07882   0.06199   0.30067   0.00000  Uiso   1.00
C151   C     0.13891   0.07244   0.32842   0.00000  Uiso   1.00
C152   C     0.13891   0.07244   0.21731   0.00000  Uiso   1.00
C153   C     0.17754   0.11104   0.24508   0.00000  Uiso   1.00
C154   C     0.17754   0.11105   0.30064   0.00000  Uiso   1.00
C155   C     0.18801   0.17114   0.32838   0.00000  Uiso   1.00
C156   C     0.18801   0.17114   0.21735   0.00000  Uiso   1.00
C157   C     0.17026   0.24256   0.24510   0.00000  Uiso   1.00
C158   C     0.17026   0.24256   0.30064   0.00000  Uiso   1.00
C159   C     0.12638   0.31450   0.32839   0.00000  Uiso   1.00
C160   C     0.12638   0.31450   0.21734   0.00000  Uiso   1.00
C161   C     0.56451   0.37637   0.24506   0.00000  Uiso   1.00
C162   C     0.56450   0.37637   0.30068   0.00000  Uiso   1.00
C163   C     0.49259   0.42025   0.32843   0.00000  Uiso   1.00
C164   C     0.49259   0.42025   0.21730   0.00000  Uiso   1.00
C165   C     0.42118   0.43800   0.24505   0.00000  Uiso   1.00
C166   C     0.42118   0.43800   0.30068   0.00000  Uiso   1.00
C167   C     0.36109   0.42755   0.32842   0.00000  Uiso   1.00
C168   C     0.36109   0.42755   0.21731   0.00000  Uiso   1.00
C169   C     0.32246   0.38895   0.24508   0.00000  Uiso   1.00
C170   C     0.32246   0.38895   0.30064   0.00000  Uiso   1.00
C171   C     0.31199   0.32886   0.32838   0.00000  Uiso   1.00
C172   C     0.31198   0.32886   0.21734   0.00000  Uiso   1.00
C173   C     0.32973   0.25743   0.24509   0.00000  Uiso   1.00
C174   C     0.32973   0.25743   0.30063   0.00000  Uiso   1.00
C175   C     0.37362   0.18550   0.32838   0.00000  Uiso   1.00
C176   C     0.37362   0.18550   0.21734   0.00000  Uiso   1.00
C177   C     0.43550   0.12363   0.24505   0.00000  Uiso   1.00
C178   C     0.43550   0.12363   0.30067   0.00000  Uiso   1.00
C179   C     0.50741   0.07975   0.32842   0.00000  Uiso   1.00
C180   C     0.50741   0.07975   0.21730   0.00000  Uiso   1.00
C181   C     0.57882   0.06199   0.24504   0.00000  Uiso   1.00
C182   C     0.57882   0.06199   0.30068   0.00000  Uiso   1.00
C183   C     0.63891   0.07245   0.32842   0.00000  Uiso   1.00
C184   C     0.63891   0.07245   0.21731   0.00000  Uiso   1.00
C185   C     0.67754   0.11105   0.24508   0.00000  Uiso   1.00
C186   C     0.67754   0.11105   0.30064   0.00000  Uiso   1.00
C187   C     0.68802   0.17114   0.32838   0.00000  Uiso   1.00
C188   C     0.68801   0.17114   0.21735   0.00000  Uiso   1.00
C189   C     0.67027   0.24256   0.24510   0.00000  Uiso   1.00
C190   C     0.67027   0.24256   0.30064   0.00000  Uiso   1.00
C191   C     0.62638   0.31450   0.32839   0.00000  Uiso   1.00
C192   C     0.62638   0.31450   0.21735   0.00000  Uiso   1.00
C193   C     0.56450   0.87637   0.24506   0.00000  Uiso   1.00
C194   C     0.56450   0.87637   0.30068   0.00000  Uiso   1.00
C195   C     0.49258   0.92025   0.32843   0.00000  Uiso   1.00
C196   C     0.49258   0.92025   0.21730   0.00000  Uiso   1.00
C197   C     0.42118   0.93801   0.24505   0.00000  Uiso   1.00
C198   C     0.42118   0.93800   0.30068   0.00000  Uiso   1.00
C199   C     0.36109   0.92755   0.32842   0.00000  Uiso   1.00
C200   C     0.36109   0.92756   0.21731   0.00000  Uiso   1.00
C201   C     0.32246   0.88895   0.24508   0.00000  Uiso   1.00
C202   C     0.32246   0.88895   0.30064   0.00000  Uiso   1.00
C203   C     0.31199   0.82886   0.32838   0.00000  Uiso   1.00
C204   C     0.31199   0.82886   0.21734   0.00000  Uiso   1.00
C205   C     0.32973   0.75743   0.24509   0.00000  Uiso   1.00
C206   C     0.32973   0.75743   0.30063   0.00000  Uiso   1.00
C207   C     0.37362   0.68550   0.32838   0.00000  Uiso   1.00
C208   C     0.37362   0.68550   0.21734   0.00000  Uiso   1.00
C209   C     0.43550   0.62363   0.24505   0.00000  Uiso   1.00
C210   C     0.43550   0.62363   0.30067   0.00000  Uiso   1.00
C211   C     0.50741   0.57975   0.32842   0.00000  Uiso   1.00
C212   C     0.50742   0.57975   0.21730   0.00000  Uiso   1.00
C213   C     0.57882   0.56199   0.24505   0.00000  Uiso   1.00
C214   C     0.57882   0.56199   0.30068   0.00000  Uiso   1.00
C215   C     0.63891   0.57244   0.32842   0.00000  Uiso   1.00
C216   C     0.63891   0.57244   0.21731   0.00000  Uiso   1.00
C217   C     0.67754   0.61105   0.24508   0.00000  Uiso   1.00
C218   C     0.67754   0.61105   0.30064   0.00000  Uiso   1.00
C219   C     0.68801   0.67114   0.32838   0.00000  Uiso   1.00
C220   C     0.68801   0.67114   0.21735   0.00000  Uiso   1.00
C221   C     0.67027   0.74256   0.24510   0.00000  Uiso   1.00
C222   C     0.67027   0.74256   0.30064   0.00000  Uiso   1.00
C223   C     0.62638   0.81450   0.32839   0.00000  Uiso   1.00
C224   C     0.62638   0.81450   0.21735   0.00000  Uiso   1.00
C225   C     0.06450   0.87637   0.24505   0.00000  Uiso   1.00
C226   C     0.06451   0.87636   0.30068   0.00000  Uiso   1.00
C227   C     0.99258   0.92024   0.32843   0.00000  Uiso   1.00
C228   C     0.99259   0.92025   0.21730   0.00000  Uiso   1.00
C229   C     0.92118   0.93801   0.24505   0.00000  Uiso   1.00
C230   C     0.92118   0.93801   0.30068   0.00000  Uiso   1.00
C231   C     0.86109   0.92756   0.32842   0.00000  Uiso   1.00
C232   C     0.86109   0.92756   0.21731   0.00000  Uiso   1.00
C233   C     0.82246   0.88895   0.24508   0.00000  Uiso   1.00
C234   C     0.82246   0.88895   0.30064   0.00000  Uiso   1.00
C235   C     0.81199   0.82886   0.32838   0.00000  Uiso   1.00
C236   C     0.81199   0.82886   0.21734   0.00000  Uiso   1.00
C237   C     0.82974   0.75744   0.24509   0.00000  Uiso   1.00
C238   C     0.82974   0.75744   0.30063   0.00000  Uiso   1.00
C239   C     0.87362   0.68550   0.32838   0.00000  Uiso   1.00
C240   C     0.87362   0.68550   0.21734   0.00000  Uiso   1.00
C241   C     0.93550   0.62363   0.24505   0.00000  Uiso   1.00
C242   C     0.93550   0.62363   0.30067   0.00000  Uiso   1.00
C243   C     0.00742   0.57975   0.32842   0.00000  Uiso   1.00
C244   C     0.00742   0.57975   0.21730   0.00000  Uiso   1.00
C245   C     0.07882   0.56199   0.24504   0.00000  Uiso   1.00
C246   C     0.07882   0.56199   0.30067   0.00000  Uiso   1.00
C247   C     0.13891   0.57244   0.32842   0.00000  Uiso   1.00
C248   C     0.13891   0.57244   0.21731   0.00000  Uiso   1.00
C249   C     0.17754   0.61104   0.24508   0.00000  Uiso   1.00
C250   C     0.17754   0.61104   0.30064   0.00000  Uiso   1.00
C251   C     0.18801   0.67114   0.32838   0.00000  Uiso   1.00
C252   C     0.18801   0.67114   0.21735   0.00000  Uiso   1.00
C253   C     0.17026   0.74256   0.24510   0.00000  Uiso   1.00
C254   C     0.17026   0.74256   0.30064   0.00000  Uiso   1.00
C255   C     0.12638   0.81449   0.32839   0.00000  Uiso   1.00
C256   C     0.12638   0.81450   0.21735   0.00000  Uiso   1.00
C257   C     0.06451   0.37637   0.41172   0.00000  Uiso   1.00
C258   C     0.06451   0.37637   0.46735   0.00000  Uiso   1.00
C259   C     0.99259   0.42025   0.49510   0.00000  Uiso   1.00
C260   C     0.99259   0.42025   0.38397   0.00000  Uiso   1.00
C261   C     0.92118   0.43801   0.41172   0.00000  Uiso   1.00
C262   C     0.92118   0.43801   0.46735   0.00000  Uiso   1.00
C263   C     0.86109   0.42756   0.49509   0.00000  Uiso   1.00
C264   C     0.86109   0.42756   0.38398   0.00000  Uiso   1.00
C265   C     0.82246   0.38895   0.41175   0.00000  Uiso   1.00
C266   C     0.82246   0.38895   0.46731   0.00000  Uiso   1.00
C267   C     0.81199   0.32886   0.49505   0.00000  Uiso   1.00
C268   C     0.81199   0.32886   0.38401   0.00000  Uiso   1.00
C269   C     0.82974   0.25743   0.41176   0.00000  Uiso   1.00
C270   C     0.82974   0.25743   0.46730   0.00000  Uiso   1.00
C271   C     0.87362   0.18550   0.49505   0.00000  Uiso   1.00
C272   C     0.87362   0.18550   0.38400   0.00000  Uiso   1.00
C273   C     0.93550   0.12363   0.41171   0.00000  Uiso   1.00
C274   C     0.93550   0.12363   0.46734   0.00000  Uiso   1.00
C275   C     0.00742   0.07975   0.49509   0.00000  Uiso   1.00
C276   C     0.00742   0.07975   0.38396   0.00000  Uiso   1.00
C277   C     0.07882   0.06199   0.41171   0.00000  Uiso   1.00
C278   C     0.07882   0.06199   0.46734   0.00000  Uiso   1.00
C279   C     0.13891   0.07244   0.49508   0.00000  Uiso   1.00
C280   C     0.13891   0.07244   0.38397   0.00000  Uiso   1.00
C281   C     0.17754   0.11105   0.41175   0.00000  Uiso   1.00
C282   C     0.17754   0.11105   0.46731   0.00000  Uiso   1.00
C283   C     0.18801   0.17114   0.49505   0.00000  Uiso   1.00
C284   C     0.18801   0.17114   0.38401   0.00000  Uiso   1.00
C285   C     0.17027   0.24256   0.41176   0.00000  Uiso   1.00
C286   C     0.17027   0.24256   0.46730   0.00000  Uiso   1.00
C287   C     0.12638   0.31450   0.49506   0.00000  Uiso   1.00
C288   C     0.12638   0.31450   0.38401   0.00000  Uiso   1.00
C289   C     0.56450   0.37637   0.41172   0.00000  Uiso   1.00
C290   C     0.56450   0.37637   0.46735   0.00000  Uiso   1.00
C291   C     0.49258   0.42025   0.49510   0.00000  Uiso   1.00
C292   C     0.49258   0.42025   0.38397   0.00000  Uiso   1.00
C293   C     0.42118   0.43801   0.41172   0.00000  Uiso   1.00
C294   C     0.42118   0.43801   0.46735   0.00000  Uiso   1.00
C295   C     0.36109   0.42756   0.49509   0.00000  Uiso   1.00
C296   C     0.36109   0.42755   0.38398   0.00000  Uiso   1.00
C297   C     0.32246   0.38895   0.41175   0.00000  Uiso   1.00
C298   C     0.32246   0.38895   0.46731   0.00000  Uiso   1.00
C299   C     0.31199   0.32886   0.49505   0.00000  Uiso   1.00
C300   C     0.31199   0.32886   0.38401   0.00000  Uiso   1.00
C301   C     0.32973   0.25743   0.41176   0.00000  Uiso   1.00
C302   C     0.32973   0.25744   0.46730   0.00000  Uiso   1.00
C303   C     0.37362   0.18550   0.49505   0.00000  Uiso   1.00
C304   C     0.37362   0.18550   0.38400   0.00000  Uiso   1.00
C305   C     0.43550   0.12363   0.41171   0.00000  Uiso   1.00
C306   C     0.43550   0.12363   0.46734   0.00000  Uiso   1.00
C307   C     0.50742   0.07975   0.49509   0.00000  Uiso   1.00
C308   C     0.50742   0.07975   0.38396   0.00000  Uiso   1.00
C309   C     0.57882   0.06199   0.41171   0.00000  Uiso   1.00
C310   C     0.57882   0.06199   0.46734   0.00000  Uiso   1.00
C311   C     0.63891   0.07244   0.49508   0.00000  Uiso   1.00
C312   C     0.63891   0.07244   0.38397   0.00000  Uiso   1.00
C313   C     0.67754   0.11105   0.41175   0.00000  Uiso   1.00
C314   C     0.67754   0.11105   0.46731   0.00000  Uiso   1.00
C315   C     0.68802   0.17114   0.49505   0.00000  Uiso   1.00
C316   C     0.68802   0.17114   0.38401   0.00000  Uiso   1.00
C317   C     0.67027   0.24256   0.41176   0.00000  Uiso   1.00
C318   C     0.67027   0.24256   0.46730   0.00000  Uiso   1.00
C319   C     0.62638   0.31450   0.49506   0.00000  Uiso   1.00
C320   C     0.62638   0.31450   0.38401   0.00000  Uiso   1.00
C321   C     0.56450   0.87637   0.41172   0.00000  Uiso   1.00
C322   C     0.56451   0.87637   0.46735   0.00000  Uiso   1.00
C323   C     0.49258   0.92025   0.49510   0.00000  Uiso   1.00
C324   C     0.49258   0.92025   0.38397   0.00000  Uiso   1.00
C325   C     0.42118   0.93801   0.41172   0.00000  Uiso   1.00
C326   C     0.42118   0.93801   0.46735   0.00000  Uiso   1.00
C327   C     0.36109   0.92755   0.49509   0.00000  Uiso   1.00
C328   C     0.36109   0.92756   0.38398   0.00000  Uiso   1.00
C329   C     0.32246   0.88895   0.41175   0.00000  Uiso   1.00
C330   C     0.32246   0.88895   0.46731   0.00000  Uiso   1.00
C331   C     0.31199   0.82886   0.49505   0.00000  Uiso   1.00
C332   C     0.31199   0.82886   0.38401   0.00000  Uiso   1.00
C333   C     0.32973   0.75743   0.41176   0.00000  Uiso   1.00
C334   C     0.32973   0.75743   0.46730   0.00000  Uiso   1.00
C335   C     0.37362   0.68550   0.49505   0.00000  Uiso   1.00
C336   C     0.37362   0.68550   0.38400   0.00000  Uiso   1.00
C337   C     0.43550   0.62363   0.41171   0.00000  Uiso   1.00
C338   C     0.43550   0.62363   0.46734   0.00000  Uiso   1.00
C339   C     0.50741   0.57975   0.49509   0.00000  Uiso   1.00
C340   C     0.50742   0.57975   0.38396   0.00000  Uiso   1.00
C341   C     0.57882   0.56199   0.41171   0.00000  Uiso   1.00
C342   C     0.57882   0.56199   0.46734   0.00000  Uiso   1.00
C343   C     0.63891   0.57244   0.49508   0.00000  Uiso   1.00
C344   C     0.63891   0.57244   0.38397   0.00000  Uiso   1.00
C345   C     0.67754   0.61105   0.41175   0.00000  Uiso   1.00
C346   C     0.67754   0.61105   0.46731   0.00000  Uiso   1.00
C347   C     0.68802   0.67114   0.49505   0.00000  Uiso   1.00
C348   C     0.68802   0.67114   0.38401   0.00000  Uiso   1.00
C349   C     0.67027   0.74256   0.41176   0.00000  Uiso   1.00
C350   C     0.67027   0.74256   0.46730   0.00000  Uiso   1.00
C351   C     0.62638   0.81450   0.49505   0.00000  Uiso   1.00
C352   C     0.62638   0.81450   0.38401   0.00000  Uiso   1.00
C353   C     0.06450   0.87636   0.41172   0.00000  Uiso   1.00
C354   C     0.06450   0.87637   0.46735   0.00000  Uiso   1.00
C355   C     0.99258   0.92025   0.49510   0.00000  Uiso   1.00
C356   C     0.99258   0.92025   0.38397   0.00000  Uiso   1.00
C357   C     0.92118   0.93801   0.41172   0.00000  Uiso   1.00
C358   C     0.92118   0.93801   0.46735   0.00000  Uiso   1.00
C359   C     0.86109   0.92756   0.49509   0.00000  Uiso   1.00
C360   C     0.86109   0.92756   0.38398   0.00000  Uiso   1.00
C361   C     0.82246   0.88895   0.41175   0.00000  Uiso   1.00
C362   C     0.82246   0.88895   0.46731   0.00000  Uiso   1.00
C363   C     0.81199   0.82886   0.49504   0.00000  Uiso   1.00
C364   C     0.81199   0.82886   0.38401   0.00000  Uiso   1.00
C365   C     0.82973   0.75743   0.41176   0.00000  Uiso   1.00
C366   C     0.82974   0.75743   0.46730   0.00000  Uiso   1.00
C367   C     0.87362   0.68550   0.49505   0.00000  Uiso   1.00
C368   C     0.87362   0.68550   0.38400   0.00000  Uiso   1.00
C369   C     0.93550   0.62363   0.41171   0.00000  Uiso   1.00
C370   C     0.93550   0.62363   0.46734   0.00000  Uiso   1.00
C371   C     0.00741   0.57975   0.49509   0.00000  Uiso   1.00
C372   C     0.00741   0.57975   0.38396   0.00000  Uiso   1.00
C373   C     0.07882   0.56199   0.41171   0.00000  Uiso   1.00
C374   C     0.07882   0.56199   0.46734   0.00000  Uiso   1.00
C375   C     0.13891   0.57244   0.49508   0.00000  Uiso   1.00
C376   C     0.13891   0.57244   0.38397   0.00000  Uiso   1.00
C377   C     0.17754   0.61104   0.41175   0.00000  Uiso   1.00
C378   C     0.17754   0.61104   0.46731   0.00000  Uiso   1.00
C379   C     0.18801   0.67114   0.49505   0.00000  Uiso   1.00
C380   C     0.18801   0.67114   0.38401   0.00000  Uiso   1.00
C381   C     0.17026   0.74256   0.41176   0.00000  Uiso   1.00
C382   C     0.17026   0.74256   0.46730   0.00000  Uiso   1.00
C383   C     0.12638   0.81450   0.49506   0.00000  Uiso   1.00
C384   C     0.12638   0.81450   0.38401   0.00000  Uiso   1.00
C385   C     0.06451   0.37637   0.57839   0.00000  Uiso   1.00
C386   C     0.06450   0.37637   0.63401   0.00000  Uiso   1.00
C387   C     0.99259   0.42025   0.66176   0.00000  Uiso   1.00
C388   C     0.99258   0.42025   0.55064   0.00000  Uiso   1.00
C389   C     0.92118   0.43801   0.57838   0.00000  Uiso   1.00
C390   C     0.92118   0.43801   0.63401   0.00000  Uiso   1.00
C391   C     0.86109   0.42756   0.66175   0.00000  Uiso   1.00
C392   C     0.86109   0.42756   0.55064   0.00000  Uiso   1.00
C393   C     0.82246   0.38895   0.57842   0.00000  Uiso   1.00
C394   C     0.82246   0.38895   0.63397   0.00000  Uiso   1.00
C395   C     0.81199   0.32886   0.66171   0.00000  Uiso   1.00
C396   C     0.81199   0.32886   0.55068   0.00000  Uiso   1.00
C397   C     0.82974   0.25743   0.57842   0.00000  Uiso   1.00
C398   C     0.82974   0.25743   0.63396   0.00000  Uiso   1.00
C399   C     0.87362   0.18550   0.66171   0.00000  Uiso   1.00
C400   C     0.87362   0.18550   0.55067   0.00000  Uiso   1.00
C401   C     0.93550   0.12363   0.57838   0.00000  Uiso   1.00
C402   C     0.93550   0.12363   0.63400   0.00000  Uiso   1.00
C403   C     0.00742   0.07975   0.66176   0.00000  Uiso   1.00
C404   C     0.00742   0.07975   0.55063   0.00000  Uiso   1.00
C405   C     0.07882   0.06199   0.57838   0.00000  Uiso   1.00
C406   C     0.07882   0.06199   0.63401   0.00000  Uiso   1.00
C407   C     0.13891   0.07244   0.66175   0.00000  Uiso   1.00
C408   C     0.13891   0.07244   0.55064   0.00000  Uiso   1.00
C409   C     0.17754   0.11105   0.57842   0.00000  Uiso   1.00
C410   C     0.17754   0.11105   0.63397   0.00000  Uiso   1.00
C411   C     0.18801   0.17114   0.66172   0.00000  Uiso   1.00
C412   C     0.18801   0.17114   0.55068   0.00000  Uiso   1.00
C413   C     0.17026   0.24256   0.57843   0.00000  Uiso   1.00
C414   C     0.17026   0.24256   0.63397   0.00000  Uiso   1.00
C415   C     0.12638   0.31450   0.66172   0.00000  Uiso   1.00
C416   C     0.12638   0.31450   0.55068   0.00000  Uiso   1.00
C417   C     0.56450   0.37637   0.57839   0.00000  Uiso   1.00
C418   C     0.56450   0.37637   0.63401   0.00000  Uiso   1.00
C419   C     0.49259   0.42025   0.66176   0.00000  Uiso   1.00
C420   C     0.49259   0.42025   0.55064   0.00000  Uiso   1.00
C421   C     0.42118   0.43800   0.57838   0.00000  Uiso   1.00
C422   C     0.42118   0.43800   0.63401   0.00000  Uiso   1.00
C423   C     0.36109   0.42755   0.66175   0.00000  Uiso   1.00
C424   C     0.36109   0.42756   0.55064   0.00000  Uiso   1.00
C425   C     0.32246   0.38895   0.57842   0.00000  Uiso   1.00
C426   C     0.32246   0.38895   0.63398   0.00000  Uiso   1.00
C427   C     0.31198   0.32886   0.66171   0.00000  Uiso   1.00
C428   C     0.31199   0.32886   0.55068   0.00000  Uiso   1.00
C429   C     0.32973   0.25743   0.57842   0.00000  Uiso   1.00
C430   C     0.32973   0.25743   0.63396   0.00000  Uiso   1.00
C431   C     0.37362   0.18550   0.66171   0.00000  Uiso   1.00
C432   C     0.37362   0.18550   0.55067   0.00000  Uiso   1.00
C433   C     0.43550   0.12363   0.57838   0.00000  Uiso   1.00
C434   C     0.43550   0.12363   0.63400   0.00000  Uiso   1.00
C435   C     0.50742   0.07975   0.66175   0.00000  Uiso   1.00
C436   C     0.50741   0.07975   0.55063   0.00000  Uiso   1.00
C437   C     0.57882   0.06199   0.57838   0.00000  Uiso   1.00
C438   C     0.57882   0.06199   0.63401   0.00000  Uiso   1.00
C439   C     0.63891   0.07244   0.66175   0.00000  Uiso   1.00
C440   C     0.63891   0.07244   0.55064   0.00000  Uiso   1.00
C441   C     0.67754   0.11105   0.57842   0.00000  Uiso   1.00
C442   C     0.67754   0.11105   0.63397   0.00000  Uiso   1.00
C443   C     0.68802   0.17114   0.66172   0.00000  Uiso   1.00
C444   C     0.68802   0.17114   0.55068   0.00000  Uiso   1.00
C445   C     0.67027   0.24256   0.57843   0.00000  Uiso   1.00
C446   C     0.67027   0.24256   0.63397   0.00000  Uiso   1.00
C447   C     0.62638   0.31450   0.66172   0.00000  Uiso   1.00
C448   C     0.62638   0.31450   0.55068   0.00000  Uiso   1.00
C449   C     0.56450   0.87637   0.57839   0.00000  Uiso   1.00
C450   C     0.56450   0.87637   0.63401   0.00000  Uiso   1.00
C451   C     0.49259   0.92025   0.66176   0.00000  Uiso   1.00
C452   C     0.49259   0.92025   0.55064   0.00000  Uiso   1.00
C453   C     0.42118   0.93800   0.57838   0.00000  Uiso   1.00
C454   C     0.42118   0.93801   0.63401   0.00000  Uiso   1.00
C455   C     0.36109   0.92755   0.66175   0.00000  Uiso   1.00
C456   C     0.36109   0.92755   0.55064   0.00000  Uiso   1.00
C457   C     0.32246   0.88895   0.57842   0.00000  Uiso   1.00
C458   C     0.32246   0.88895   0.63397   0.00000  Uiso   1.00
C459   C     0.31199   0.82886   0.66171   0.00000  Uiso   1.00
C460   C     0.31199   0.82886   0.55068   0.00000  Uiso   1.00
C461   C     0.32973   0.75743   0.57842   0.00000  Uiso   1.00
C462   C     0.32973   0.75743   0.63396   0.00000  Uiso   1.00
C463   C     0.37362   0.68550   0.66171   0.00000  Uiso   1.00
C464   C     0.37362   0.68550   0.55067   0.00000  Uiso   1.00
C465   C     0.43550   0.62363   0.57838   0.00000  Uiso   1.00
C466   C     0.43550   0.62363   0.63400   0.00000  Uiso   1.00
C467   C     0.50742   0.57975   0.66176   0.00000  Uiso   1.00
C468   C     0.50742   0.57975   0.55063   0.00000  Uiso   1.00
C469   C     0.57882   0.56199   0.57838   0.00000  Uiso   1.00
C470   C     0.57882   0.56199   0.63401   0.00000  Uiso   1.00
C471   C     0.63891   0.57245   0.66175   0.00000  Uiso   1.00
C472   C     0.63891   0.57244   0.55064   0.00000  Uiso   1.00
C473   C     0.67754   0.61105   0.57842   0.00000  Uiso   1.00
C474   C     0.67754   0.61105   0.63397   0.00000  Uiso   1.00
C475   C     0.68802   0.67114   0.66171   0.00000  Uiso   1.00
C476   C     0.68802   0.67114   0.55068   0.00000  Uiso   1.00
C477   C     0.67027   0.74256   0.57843   0.00000  Uiso   1.00
C478   C     0.67027   0.74256   0.63397   0.00000  Uiso   1.00
C479   C     0.62638   0.81450   0.66172   0.00000  Uiso   1.00
C480   C     0.62638   0.81450   0.55068   0.00000  Uiso   1.00
C481   C     0.06450   0.87637   0.57839   0.00000  Uiso   1.00
C482   C     0.06450   0.87637   0.63401   0.00000  Uiso   1.00
C483   C     0.99259   0.92025   0.66176   0.00000  Uiso   1.00
C484   C     0.99258   0.92025   0.55064   0.00000  Uiso   1.00
C485   C     0.92118   0.93801   0.57838   0.00000  Uiso   1.00
C486   C     0.92118   0.93801   0.63401   0.00000  Uiso   1.00
C487   C     0.86109   0.92756   0.66175   0.00000  Uiso   1.00
C488   C     0.86109   0.92756   0.55064   0.00000  Uiso   1.00
C489   C     0.82246   0.88895   0.57842   0.00000  Uiso   1.00
C490   C     0.82246   0.88895   0.63397   0.00000  Uiso   1.00
C491   C     0.81198   0.82886   0.66171   0.00000  Uiso   1.00
C492   C     0.81199   0.82886   0.55068   0.00000  Uiso   1.00
C493   C     0.82974   0.75743   0.57842   0.00000  Uiso   1.00
C494   C     0.82973   0.75744   0.63396   0.00000  Uiso   1.00
C495   C     0.87362   0.68550   0.66171   0.00000  Uiso   1.00
C496   C     0.87362   0.68550   0.55067   0.00000  Uiso   1.00
C497   C     0.93550   0.62363   0.57838   0.00000  Uiso   1.00
C498   C     0.93549   0.62363   0.63400   0.00000  Uiso   1.00
C499   C     0.00742   0.57975   0.66176   0.00000  Uiso   1.00
C500   C     0.00742   0.57975   0.55063   0.00000  Uiso   1.00
C501   C     0.07882   0.56199   0.57838   0.00000  Uiso   1.00
C502   C     0.07882   0.56199   0.63401   0.00000  Uiso   1.00
C503   C     0.13891   0.57244   0.66175   0.00000  Uiso   1.00
C504   C     0.13891   0.57244   0.55064   0.00000  Uiso   1.00
C505   C     0.17754   0.61104   0.57842   0.00000  Uiso   1.00
C506   C     0.17754   0.61104   0.63398   0.00000  Uiso   1.00
C507   C     0.18801   0.67114   0.66171   0.00000  Uiso   1.00
C508   C     0.18801   0.67114   0.55068   0.00000  Uiso   1.00
C509   C     0.17026   0.74256   0.57843   0.00000  Uiso   1.00
C510   C     0.17026   0.74256   0.63397   0.00000  Uiso   1.00
C511   C     0.12638   0.81450   0.66172   0.00000  Uiso   1.00
C512   C     0.12638   0.81450   0.55068   0.00000  Uiso   1.00
C513   C     0.06451   0.37637   0.74506   0.00000  Uiso   1.00
C514   C     0.06451   0.37637   0.80068   0.00000  Uiso   1.00
C515   C     0.99259   0.42025   0.82843   0.00000  Uiso   1.00
C516   C     0.99258   0.42025   0.71730   0.00000  Uiso   1.00
C517   C     0.92118   0.43801   0.74505   0.00000  Uiso   1.00
C518   C     0.92118   0.43801   0.80068   0.00000  Uiso   1.00
C519   C     0.86109   0.42756   0.82842   0.00000  Uiso   1.00
C520   C     0.86109   0.42756   0.71731   0.00000  Uiso   1.00
C521   C     0.82246   0.38895   0.74508   0.00000  Uiso   1.00
C522   C     0.82246   0.38896   0.80064   0.00000  Uiso   1.00
C523   C     0.81199   0.32886   0.82838   0.00000  Uiso   1.00
C524   C     0.81199   0.32886   0.71734   0.00000  Uiso   1.00
C525   C     0.82974   0.25743   0.74509   0.00000  Uiso   1.00
C526   C     0.82973   0.25744   0.80063   0.00000  Uiso   1.00
C527   C     0.87362   0.18550   0.82838   0.00000  Uiso   1.00
C528   C     0.87362   0.18550   0.71734   0.00000  Uiso   1.00
C529   C     0.93550   0.12363   0.74505   0.00000  Uiso   1.00
C530   C     0.93550   0.12363   0.80067   0.00000  Uiso   1.00
C531   C     0.00742   0.07975   0.82842   0.00000  Uiso   1.00
C532   C     0.00742   0.07975   0.71730   0.00000  Uiso   1.00
C533   C     0.07882   0.06199   0.74504   0.00000  Uiso   1.00
C534   C     0.07882   0.06199   0.80067   0.00000  Uiso   1.00
C535   C     0.13891   0.07244   0.82842   0.00000  Uiso   1.00
C536   C     0.13891   0.07244   0.71731   0.00000  Uiso   1.00
C537   C     0.17754   0.11104   0.74508   0.00000  Uiso   1.00
C538   C     0.17754   0.11104   0.80064   0.00000  Uiso   1.00
C539   C     0.18801   0.17114   0.82838   0.00000  Uiso   1.00
C540   C     0.18801   0.17114   0.71735   0.00000  Uiso   1.00
C541   C     0.17027   0.24256   0.74510   0.00000  Uiso   1.00
C542   C     0.17027   0.24256   0.80064   0.00000  Uiso   1.00
C543   C     0.12638   0.31450   0.82839   0.00000  Uiso   1.00
C544   C     0.12638   0.31449   0.71734   0.00000  Uiso   1.00
C545   C     0.56450   0.37637   0.74505   0.00000  Uiso   1.00
C546   C     0.56450   0.37637   0.80068   0.00000  Uiso   1.00
C547   C     0.49259   0.42025   0.82843   0.00000  Uiso   1.00
C548   C     0.49259   0.42025   0.71730   0.00000  Uiso   1.00
C549   C     0.42118   0.43801   0.74505   0.00000  Uiso   1.00
C550   C     0.42118   0.43801   0.80068   0.00000  Uiso   1.00
C551   C     0.36109   0.42755   0.82842   0.00000  Uiso   1.00
C552   C     0.36109   0.42755   0.71731   0.00000  Uiso   1.00
C553   C     0.32246   0.38895   0.74508   0.00000  Uiso   1.00
C554   C     0.32246   0.38895   0.80064   0.00000  Uiso   1.00
C555   C     0.31199   0.32886   0.82838   0.00000  Uiso   1.00
C556   C     0.31198   0.32886   0.71734   0.00000  Uiso   1.00
C557   C     0.32973   0.25743   0.74509   0.00000  Uiso   1.00
C558   C     0.32973   0.25743   0.80063   0.00000  Uiso   1.00
C559   C     0.37362   0.18550   0.82838   0.00000  Uiso   1.00
C560   C     0.37362   0.18550   0.71734   0.00000  Uiso   1.00
C561   C     0.43550   0.12363   0.74505   0.00000  Uiso   1.00
C562   C     0.43550   0.12363   0.80067   0.00000  Uiso   1.00
C563   C     0.50742   0.07975   0.82842   0.00000  Uiso   1.00
C564   C     0.50742   0.07975   0.71729   0.00000  Uiso   1.00
C565   C     0.57882   0.06199   0.74505   0.00000  Uiso   1.00
C566   C     0.57882   0.06199   0.80067   0.00000  Uiso   1.00
C567   C     0.63891   0.07244   0.82842   0.00000  Uiso   1.00
C568   C     0.63891   0.07244   0.71731   0.00000  Uiso   1.00
C569   C     0.67754   0.11105   0.74508   0.00000  Uiso   1.00
C570   C     0.67754   0.11105   0.80064   0.00000  Uiso   1.00
C571   C     0.68801   0.17114   0.82838   0.00000  Uiso   1.00
C572   C     0.68801   0.17114   0.71735   0.00000  Uiso   1.00
C573   C     0.67026   0.24256   0.74510   0.00000  Uiso   1.00
C574   C     0.67026   0.24256   0.80064   0.00000  Uiso   1.00
C575   C     0.62638   0.31450   0.82839   0.00000  Uiso   1.00
C576   C     0.62638   0.31450   0.71734   0.00000  Uiso   1.00
C577   C     0.56450   0.87637   0.74505   0.00000  Uiso   1.00
C578   C     0.56450   0.87637   0.80068   0.00000  Uiso   1.00
C579   C     0.49259   0.92025   0.82843   0.00000  Uiso   1.00
C580   C     0.49259   0.92025   0.71730   0.00000  Uiso   1.00
C581   C     0.42118   0.93800   0.74505   0.00000  Uiso   1.00
C582   C     0.42118   0.93800   0.80068   0.00000  Uiso   1.00
C583   C     0.36109   0.92755   0.82842   0.00000  Uiso   1.00
C584   C     0.36109   0.92755   0.71731   0.00000  Uiso   1.00
C585   C     0.32246   0.88895   0.74508   0.00000  Uiso   1.00
C586   C     0.32246   0.88895   0.80064   0.00000  Uiso   1.00
C587   C     0.31199   0.82886   0.82838   0.00000  Uiso   1.00
C588   C     0.31199   0.82886   0.71734   0.00000  Uiso   1.00
C589   C     0.32973   0.75743   0.74509   0.00000  Uiso   1.00
C590   C     0.32973   0.75743   0.80063   0.00000  Uiso   1.00
C591   C     0.37362   0.68550   0.82838   0.00000  Uiso   1.00
C592   C     0.37362   0.68550   0.71734   0.00000  Uiso   1.00
C593   C     0.43550   0.62363   0.74505   0.00000  Uiso   1.00
C594   C     0.43550   0.62363   0.80067   0.00000  Uiso   1.00
C595   C     0.50742   0.57975   0.82842   0.00000  Uiso   1.00
C596   C     0.50742   0.57975   0.71730   0.00000  Uiso   1.00
C597   C     0.57882   0.56199   0.74504   0.00000  Uiso   1.00
C598   C     0.57882   0.56199   0.80068   0.00000  Uiso   1.00
C599   C     0.63891   0.57245   0.82841   0.00000  Uiso   1.00
C600   C     0.63891   0.57245   0.71730   0.00000  Uiso   1.00
C601   C     0.67754   0.61105   0.74508   0.00000  Uiso   1.00
C602   C     0.67754   0.61105   0.80064   0.00000  Uiso   1.00
C603   C     0.68802   0.67114   0.82838   0.00000  Uiso   1.00
C604   C     0.68802   0.67114   0.71735   0.00000  Uiso   1.00
C605   C     0.67027   0.74256   0.74509   0.00000  Uiso   1.00
C606   C     0.67027   0.74256   0.80064   0.00000  Uiso   1.00
C607   C     0.62638   0.81450   0.82839   0.00000  Uiso   1.00
C608   C     0.62638   0.81450   0.71734   0.00000  Uiso   1.00
C609   C     0.06451   0.87637   0.74505   0.00000  Uiso   1.00
C610   C     0.06451   0.87637   0.80068   0.00000  Uiso   1.00
C611   C     0.99259   0.92025   0.82843   0.00000  Uiso   1.00
C612   C     0.99258   0.92025   0.71730   0.00000  Uiso   1.00
C613   C     0.92118   0.93800   0.74505   0.00000  Uiso   1.00
C614   C     0.92118   0.93801   0.80068   0.00000  Uiso   1.00
C615   C     0.86109   0.92756   0.82842   0.00000  Uiso   1.00
C616   C     0.86109   0.92756   0.71731   0.00000  Uiso   1.00
C617   C     0.82246   0.88895   0.74508   0.00000  Uiso   1.00
C618   C     0.82246   0.88895   0.80064   0.00000  Uiso   1.00
C619   C     0.81199   0.82886   0.82838   0.00000  Uiso   1.00
C620   C     0.81198   0.82886   0.71734   0.00000  Uiso   1.00
C621   C     0.82974   0.75744   0.74509   0.00000  Uiso   1.00
C622   C     0.82974   0.75743   0.80063   0.00000  Uiso   1.00
C623   C     0.87362   0.68550   0.82838   0.00000  Uiso   1.00
C624   C     0.87362   0.68550   0.71734   0.00000  Uiso   1.00
C625   C     0.93550   0.62363   0.74505   0.00000  Uiso   1.00
C626   C     0.93549   0.62363   0.80067   0.00000  Uiso   1.00
C627   C     0.00741   0.57975   0.82842   0.00000  Uiso   1.00
C628   C     0.00742   0.57975   0.71730   0.00000  Uiso   1.00
C629   C     0.07882   0.56199   0.74504   0.00000  Uiso   1.00
C630   C     0.07882   0.56199   0.80068   0.00000  Uiso   1.00
C631   C     0.13891   0.57244   0.82842   0.00000  Uiso   1.00
C632   C     0.13891   0.57244   0.71731   0.00000  Uiso   1.00
C633   C     0.17754   0.61104   0.74508   0.00000  Uiso   1.00
C634   C     0.17754   0.61105   0.80064   0.00000  Uiso   1.00
C635   C     0.18802   0.67114   0.82838   0.00000  Uiso   1.00
C636   C     0.18801   0.67114   0.71735   0.00000  Uiso   1.00
C637   C     0.17027   0.74256   0.74510   0.00000  Uiso   1.00
C638   C     0.17027   0.74256   0.80063   0.00000  Uiso   1.00
C639   C     0.12638   0.81449   0.82839   0.00000  Uiso   1.00
C640   C     0.12638   0.81450   0.71734   0.00000  Uiso   1.00
C641   C     0.06450   0.37637   0.91172   0.00000  Uiso   1.00
C642   C     0.06450   0.37637   0.96734   0.00000  Uiso   1.00
C643   C     0.99258   0.42025   0.99510   0.00000  Uiso   1.00
C644   C     0.99258   0.42025   0.88397   0.00000  Uiso   1.00
C645   C     0.92118   0.43801   0.91172   0.00000  Uiso   1.00
C646   C     0.92118   0.43801   0.96735   0.00000  Uiso   1.00
C647   C     0.86109   0.42756   0.99509   0.00000  Uiso   1.00
C648   C     0.86109   0.42756   0.88397   0.00000  Uiso   1.00
C649   C     0.82246   0.38896   0.91175   0.00000  Uiso   1.00
C650   C     0.82246   0.38896   0.96731   0.00000  Uiso   1.00
C651   C     0.81199   0.32886   0.99504   0.00000  Uiso   1.00
C652   C     0.81199   0.32886   0.88401   0.00000  Uiso   1.00
C653   C     0.82974   0.25744   0.91175   0.00000  Uiso   1.00
C654   C     0.82974   0.25744   0.96730   0.00000  Uiso   1.00
C655   C     0.87362   0.18550   0.99505   0.00000  Uiso   1.00
C656   C     0.87362   0.18550   0.88400   0.00000  Uiso   1.00
C657   C     0.93550   0.12363   0.91171   0.00000  Uiso   1.00
C658   C     0.93550   0.12363   0.96734   0.00000  Uiso   1.00
C659   C     0.00742   0.07975   0.99509   0.00000  Uiso   1.00
C660   C     0.00742   0.07975   0.88396   0.00000  Uiso   1.00
C661   C     0.07882   0.06199   0.91171   0.00000  Uiso   1.00
C662   C     0.07882   0.06199   0.96734   0.00000  Uiso   1.00
C663   C     0.13891   0.07244   0.99508   0.00000  Uiso   1.00
C664   C     0.13891   0.07244   0.88397   0.00000  Uiso   1.00
C665   C     0.17754   0.11104   0.91175   0.00000  Uiso   1.00
C666   C     0.17754   0.11104   0.96731   0.00000  Uiso   1.00
C667   C     0.18802   0.17114   0.99505   0.00000  Uiso   1.00
C668   C     0.18801   0.17114   0.88401   0.00000  Uiso   1.00
C669   C     0.17026   0.24256   0.91176   0.00000  Uiso   1.00
C670   C     0.17026   0.24256   0.96730   0.00000  Uiso   1.00
C671   C     0.12638   0.31449   0.99505   0.00000  Uiso   1.00
C672   C     0.12638   0.31450   0.88401   0.00000  Uiso   1.00
C673   C     0.56450   0.37637   0.91172   0.00000  Uiso   1.00
C674   C     0.56450   0.37637   0.96734   0.00000  Uiso   1.00
C675   C     0.49259   0.42025   0.99510   0.00000  Uiso   1.00
C676   C     0.49259   0.42025   0.88397   0.00000  Uiso   1.00
C677   C     0.42118   0.43801   0.91172   0.00000  Uiso   1.00
C678   C     0.42118   0.43801   0.96735   0.00000  Uiso   1.00
C679   C     0.36109   0.42755   0.99509   0.00000  Uiso   1.00
C680   C     0.36109   0.42755   0.88398   0.00000  Uiso   1.00
C681   C     0.32246   0.38895   0.91175   0.00000  Uiso   1.00
C682   C     0.32246   0.38895   0.96731   0.00000  Uiso   1.00
C683   C     0.31199   0.32886   0.99505   0.00000  Uiso   1.00
C684   C     0.31199   0.32886   0.88401   0.00000  Uiso   1.00
C685   C     0.32973   0.25743   0.91176   0.00000  Uiso   1.00
C686   C     0.32973   0.25743   0.96730   0.00000  Uiso   1.00
C687   C     0.37362   0.18550   0.99505   0.00000  Uiso   1.00
C688   C     0.37362   0.18550   0.88400   0.00000  Uiso   1.00
C689   C     0.43550   0.12363   0.91171   0.00000  Uiso   1.00
C690   C     0.43550   0.12363   0.96734   0.00000  Uiso   1.00
C691   C     0.50741   0.07975   0.99509   0.00000  Uiso   1.00
C692   C     0.50741   0.07975   0.88396   0.00000  Uiso   1.00
C693   C     0.57882   0.06199   0.91171   0.00000  Uiso   1.00
C694   C     0.57882   0.06199   0.96734   0.00000  Uiso   1.00
C695   C     0.63891   0.07245   0.99508   0.00000  Uiso   1.00
C696   C     0.63891   0.07244   0.88397   0.00000  Uiso   1.00
C697   C     0.67754   0.11105   0.91175   0.00000  Uiso   1.00
C698   C     0.67754   0.11105   0.96731   0.00000  Uiso   1.00
C699   C     0.68802   0.17114   0.99505   0.00000  Uiso   1.00
C700   C     0.68801   0.17114   0.88401   0.00000  Uiso   1.00
C701   C     0.67027   0.24256   0.91176   0.00000  Uiso   1.00
C702   C     0.67027   0.24256   0.96730   0.00000  Uiso   1.00
C703   C     0.62638   0.31450   0.99505   0.00000  Uiso   1.00
C704   C     0.62638   0.31450   0.88401   0.00000  Uiso   1.00
C705   C     0.56450   0.87637   0.91172   0.00000  Uiso   1.00
C706   C     0.56450   0.87637   0.96734   0.00000  Uiso   1.00
C707   C     0.49259   0.92025   0.99510   0.00000  Uiso   1.00
C708   C     0.49259   0.92025   0.88397   0.00000  Uiso   1.00
C709   C     0.42118   0.93801   0.91172   0.00000  Uiso   1.00
C710   C     0.42118   0.93801   0.96735   0.00000  Uiso   1.00
C711   C     0.36109   0.92755   0.99509   0.00000  Uiso   1.00
C712   C     0.36109   0.92755   0.88398   0.00000  Uiso   1.00
C713   C     0.32246   0.88895   0.91175   0.00000  Uiso   1.00
C714   C     0.32246   0.88895   0.96731   0.00000  Uiso   1.00
C715   C     0.31199   0.82886   0.99504   0.00000  Uiso   1.00
C716   C     0.31199   0.82886   0.88401   0.00000  Uiso   1.00
C717   C     0.32973   0.75743   0.91176   0.00000  Uiso   1.00
C718   C     0.32973   0.75743   0.96730   0.00000  Uiso   1.00
C719   C     0.37362   0.68550   0.99505   0.00000  Uiso   1.00
C720   C     0.37362   0.68550   0.88400   0.00000  Uiso   1.00
C721   C     0.43550   0.62363   0.91171   0.00000  Uiso   1.00
C722   C     0.43550   0.62363   0.96734   0.00000  Uiso   1.00
C723   C     0.50741   0.57975   0.99509   0.00000  Uiso   1.00
C724   C     0.50742   0.57975   0.88396   0.00000  Uiso   1.00
C725   C     0.57882   0.56199   0.91171   0.00000  Uiso   1.00
C726   C     0.57882   0.56199   0.96734   0.00000  Uiso   1.00
C727   C     0.63891   0.57244   0.99508   0.00000  Uiso   1.00
C728   C     0.63891   0.57245   0.88397   0.00000  Uiso   1.00
C729   C     0.67754   0.61105   0.91175   0.00000  Uiso   1.00
C730   C     0.67754   0.61105   0.96731   0.00000  Uiso   1.00
C731   C     0.68801   0.67114   0.99505   0.00000  Uiso   1.00
C732   C     0.68802   0.67114   0.88401   0.00000  Uiso   1.00
C733   C     0.67027   0.74256   0.91176   0.00000  Uiso   1.00
C734   C     0.67027   0.74256   0.96730   0.00000  Uiso   1.00
C735   C     0.62638   0.81450   0.99506   0.00000  Uiso   1.00
C736   C     0.62638   0.81450   0.88401   0.00000  Uiso   1.00
C737   C     0.06450   0.87637   0.91172   0.00000  Uiso   1.00
C738   C     0.06450   0.87637   0.96734   0.00000  Uiso   1.00
C739   C     0.99259   0.92025   0.99510   0.00000  Uiso   1.00
C740   C     0.99259   0.92025   0.88397   0.00000  Uiso   1.00
C741   C     0.92118   0.93801   0.91172   0.00000  Uiso   1.00
C742   C     0.92118   0.93801   0.96735   0.00000  Uiso   1.00
C743   C     0.86109   0.92756   0.99509   0.00000  Uiso   1.00
C744   C     0.86109   0.92756   0.88398   0.00000  Uiso   1.00
C745   C     0.82246   0.88895   0.91175   0.00000  Uiso   1.00
C746   C     0.82246   0.88895   0.96731   0.00000  Uiso   1.00
C747   C     0.81199   0.82886   0.99505   0.00000  Uiso   1.00
C748   C     0.81199   0.82886   0.88401   0.00000  Uiso   1.00
C749   C     0.82973   0.75744   0.91176   0.00000  Uiso   1.00
C750   C     0.82974   0.75743   0.96730   0.00000  Uiso   1.00
C751   C     0.87362   0.68550   0.99505   0.00000  Uiso   1.00
C752   C     0.87362   0.68550   0.88400   0.00000  Uiso   1.00
C753   C     0.93550   0.62363   0.91171   0.00000  Uiso   1.00
C754   C     0.93550   0.62363   0.96734   0.00000  Uiso   1.00
C755   C     0.00742   0.57975   0.99509   0.00000  Uiso   1.00
C756   C     0.00741   0.57975   0.88396   0.00000  Uiso   1.00
C757   C     0.07882   0.56199   0.91171   0.00000  Uiso   1.00
C758   C     0.07882   0.56199   0.96734   0.00000  Uiso   1.00
C759   C     0.13891   0.57244   0.99508   0.00000  Uiso   1.00
C760   C     0.13891   0.57244   0.88397   0.00000  Uiso   1.00
C761   C     0.17754   0.61105   0.91175   0.00000  Uiso   1.00
C762   C     0.17754   0.61105   0.96731   0.00000  Uiso   1.00
C763   C     0.18802   0.67114   0.99505   0.00000  Uiso   1.00
C764   C     0.18802   0.67114   0.88401   0.00000  Uiso   1.00
C765   C     0.17027   0.74256   0.91176   0.00000  Uiso   1.00
C766   C     0.17027   0.74256   0.96730   0.00000  Uiso   1.00
C767   C     0.12638   0.81449   0.99505   0.00000  Uiso   1.00
C768   C     0.12638   0.81450   0.88401   0.00000  Uiso   1.00
loop_
_geom_bond_atom_site_label_1
_geom_bond_atom_site_label_2
_geom_bond_distance
_geom_bond_site_symmetry_2
_ccdc_geom_bond_type
C1     C2      1.417   .     S
C1     C32     1.431   .     S
C2     C31     1.431   .     S
C3     C6      1.437   .     S
C3     C132    1.415   .     S
C4     C5      1.437   .     S
C5     C6      1.418   .     S
C5     C8      1.437   .     S
C6     C7      1.437   .     S
C7     C10     1.441   .     S
C7     C136    1.416   .     S
C8     C9      1.441   .     S
C9     C10     1.416   .     S
C9     C12     1.437   .     S
C10    C11     1.437   .     S
C11    C14     1.437   .     S
C11    C140    1.418   .     S
C12    C13     1.437   .     S
C13    C14     1.415   .     S
C13    C16     1.437   .     S
C14    C15     1.437   .     S
C15    C18     1.431   .     S
C15    C144    1.417   .     S
C16    C17     1.431   .     S
C17    C18     1.417   .     S
C19    C22     1.437   .     S
C19    C148    1.415   .     S
C20    C21     1.437   .     S
C21    C22     1.418   .     S
C21    C24     1.437   .     S
C22    C23     1.437   .     S
C23    C26     1.441   .     S
C23    C152    1.416   .     S
C24    C25     1.441   .     S
C25    C26     1.416   .     S
C25    C28     1.437   .     S
C26    C27     1.437   .     S
C27    C30     1.437   .     S
C27    C156    1.418   .     S
C28    C29     1.437   .     S
C29    C30     1.415   .     S
C29    C32     1.437   .     S
C30    C31     1.437   .     S
C31    C160    1.417   .     S
C33    C34     1.417   .     S
C33    C36     1.437   .     S
C33    C64     1.431   .     S
C34    C35     1.437   .     S
C34    C63     1.431   .     S
C35    C38     1.437   .     S
C35    C164    1.415   .     S
C36    C37     1.437   .     S
C37    C38     1.418   .     S
C37    C40     1.437   .     S
C38    C39     1.437   .     S
C39    C42     1.441   .     S
C39    C168    1.416   .     S
C40    C41     1.441   .     S
C41    C42     1.416   .     S
C41    C44     1.437   .     S
C42    C43     1.437   .     S
C43    C46     1.437   .     S
C43    C172    1.418   .     S
C44    C45     1.437   .     S
C45    C46     1.415   .     S
C45    C48     1.437   .     S
C46    C47     1.437   .     S
C47    C50     1.431   .     S
C47    C176    1.417   .     S
C48    C49     1.431   .     S
C49    C50     1.417   .     S
C49    C52     1.437   .     S
C50    C51     1.437   .     S
C51    C54     1.437   .     S
C51    C180    1.415   .     S
C52    C53     1.437   .     S
C53    C54     1.418   .     S
C53    C56     1.437   .     S
C54    C55     1.437   .     S
C55    C58     1.441   .     S
C55    C184    1.416   .     S
C56    C57     1.441   .     S
C57    C58     1.416   .     S
C57    C60     1.437   .     S
C58    C59     1.437   .     S
C59    C62     1.437   .     S
C59    C188    1.418   .     S
C60    C61     1.437   .     S
C61    C62     1.415   .     S
C61    C64     1.437   .     S
C62    C63     1.437   .     S
C63    C192    1.417   .     S
C65    C66     1.417   .     S
C65    C68     1.437   .     S
C65    C96     1.431   .     S
C66    C67     1.437   .     S
C66    C95     1.431   .     S
C67    C70     1.437   .     S
C67    C196    1.415   .     S
C68    C69     1.437   .     S
C69    C70     1.418   .     S
C69    C72     1.437   .     S
C70    C71     1.437   .     S
C71    C74     1.441   .     S
C71    C200    1.416   .     S
C72    C73     1.441   .     S
C73    C74     1.416   .     S
C73    C76     1.437   .     S
C74    C75     1.437   .     S
C75    C78     1.437   .     S
C75    C204    1.418   .     S
C76    C77     1.437   .     S
C77    C78     1.415   .     S
C77    C80     1.437   .     S
C78    C79     1.437   .     S
C79    C82     1.431   .     S
C79    C208    1.417   .     S
C80    C81     1.431   .     S
C81    C82     1.417   .     S
C81    C84     1.437   .     S
C82    C83     1.437   .     S
C83    C86     1.437   .     S
C83    C212    1.415   .     S
C84    C85     1.437   .     S
C85    C86     1.418   .     S
C85    C88     1.437   .     S
C86    C87     1.437   .     S
C87    C90     1.441   .     S
C87    C216    1.416   .     S
C88    C89     1.441   .     S
C89    C90     1.416   .     S
C89    C92     1.437   .     S
C90    C91     1.437   .     S
C91    C94     1.437   .     S
C91    C220    1.418   .     S
C92    C93     1.437   .     S
C93    C94     1.415   .     S
C93    C96     1.437   .     S
C94    C95     1.437   .     S
C95    C224    1.417   .     S
C97    C98     1.417   .     S
C97    C128    1.431   .     S
C98    C127    1.431   .     S
C99    C102    1.437   .     S
C99    C228    1.415   .     S
C100   C101    1.437   .     S
C101   C102    1.418   .     S
C101   C104    1.437   .     S
C102   C103    1.437   .     S
C103   C106    1.441   .     S
C103   C232    1.416   .     S
C104   C105    1.441   .     S
C105   C106    1.416   .     S
C105   C108    1.437   .     S
C106   C107    1.437   .     S
C107   C110    1.437   .     S
C107   C236    1.418   .     S
C108   C109    1.437   .     S
C109   C110    1.415   .     S
C109   C112    1.437   .     S
C110   C111    1.437   .     S
C111   C114    1.431   .     S
C111   C240    1.417   .     S
C112   C113    1.431   .     S
C113   C114    1.417   .     S
C115   C118    1.437   .     S
C115   C244    1.415   .     S
C116   C117    1.437   .     S
C117   C118    1.418   .     S
C117   C120    1.437   .     S
C118   C119    1.437   .     S
C119   C122    1.441   .     S
C119   C248    1.416   .     S
C120   C121    1.441   .     S
C121   C122    1.416   .     S
C121   C124    1.437   .     S
C122   C123    1.437   .     S
C123   C126    1.437   .     S
C123   C252    1.418   .     S
C124   C125    1.437   .     S
C125   C126    1.415   .     S
C125   C128    1.437   .     S
C126   C127    1.437   .     S
C127   C256    1.417   .     S
C129   C160    1.431   .     S
C129   C130    1.417   .     S
C130   C159    1.431   .     S
C131   C134    1.437   .     S
C131   C260    1.415   .     S
C132   C133    1.437   .     S
C133   C136    1.437   .     S
C133   C134    1.418   .     S
C134   C135    1.437   .     S
C135   C138    1.441   .     S
C135   C264    1.416   .     S
C136   C137    1.441   .     S
C137   C140    1.437   .     S
C137   C138    1.416   .     S
C138   C139    1.437   .     S
C139   C142    1.437   .     S
C139   C268    1.418   .     S
C140   C141    1.437   .     S
C141   C144    1.437   .     S
C141   C142    1.415   .     S
C142   C143    1.437   .     S
C143   C146    1.431   .     S
C143   C272    1.417   .     S
C144   C145    1.431   .     S
C145   C146    1.417   .     S
C147   C150    1.437   .     S
C147   C276    1.415   .     S
C148   C149    1.437   .     S
C149   C152    1.437   .     S
C149   C150    1.418   .     S
C150   C151    1.437   .     S
C151   C154    1.441   .     S
C151   C280    1.416   .     S
C152   C153    1.441   .     S
C153   C156    1.437   .     S
C153   C154    1.416   .     S
C154   C155    1.437   .     S
C155   C158    1.437   .     S
C155   C284    1.418   .     S
C156   C157    1.437   .     S
C157   C160    1.437   .     S
C157   C158    1.415   .     S
C158   C159    1.437   .     S
C159   C288    1.417   .     S
C161   C192    1.431   .     S
C161   C164    1.437   .     S
C161   C162    1.417   .     S
C162   C191    1.431   .     S
C162   C163    1.437   .     S
C163   C166    1.437   .     S
C163   C292    1.415   .     S
C164   C165    1.437   .     S
C165   C168    1.437   .     S
C165   C166    1.418   .     S
C166   C167    1.437   .     S
C167   C170    1.441   .     S
C167   C296    1.416   .     S
C168   C169    1.441   .     S
C169   C172    1.437   .     S
C169   C170    1.416   .     S
C170   C171    1.437   .     S
C171   C174    1.437   .     S
C171   C300    1.418   .     S
C172   C173    1.437   .     S
C173   C176    1.437   .     S
C173   C174    1.415   .     S
C174   C175    1.437   .     S
C175   C178    1.431   .     S
C175   C304    1.417   .     S
C176   C177    1.431   .     S
C177   C180    1.437   .     S
C177   C178    1.417   .     S
C178   C179    1.437   .     S
C179   C182    1.437   .     S
C179   C308    1.415   .     S
C180   C181    1.437   .     S
C181   C184    1.437   .     S
C181   C182    1.418   .     S
C182   C183    1.437   .     S
C183   C186    1.441   .     S
C183   C312    1.416   .     S
C184   C185    1.441   .     S
C185   C188    1.437   .     S
C185   C186    1.416   .     S
C186   C187    1.437   .     S
C187   C190    1.437   .     S
C187   C316    1.418   .     S
C188   C189    1.437   .     S
C189   C192    1.437   .     S
C189   C190    1.415   .     S
C190   C191    1.437   .     S
C191   C320    1.417   .     S
C193   C196    1.437   .     S
C193   C224    1.431   .     S
C193   C194    1.417   .     S
C194   C195    1.437   .     S
C194   C223    1.431   .     S
C195   C198    1.437   .     S
C195   C324    1.415   .     S
C196   C197    1.437   .     S
C197   C200    1.437   .     S
C197   C198    1.418   .     S
C198   C199    1.437   .     S
C199   C202    1.441   .     S
C199   C328    1.416   .     S
C200   C201    1.441   .     S
C201   C204    1.437   .     S
C201   C202    1.416   .     S
C202   C203    1.437   .     S
C203   C206    1.437   .     S
C203   C332    1.418   .     S
C204   C205    1.437   .     S
C205   C208    1.437   .     S
C205   C206    1.415   .     S
C206   C207    1.437   .     S
C207   C210    1.431   .     S
C207   C336    1.417   .     S
C208   C209    1.431   .     S
C209   C212    1.437   .     S
C209   C210    1.417   .     S
C210   C211    1.437   .     S
C211   C214    1.437   .     S
C211   C340    1.415   .     S
C212   C213    1.437   .     S
C213   C216    1.437   .     S
C213   C214    1.418   .     S
C214   C215    1.437   .     S
C215   C218    1.441   .     S
C215   C344    1.416   .     S
C216   C217    1.441   .     S
C217   C220    1.437   .     S
C217   C218    1.416   .     S
C218   C219    1.437   .     S
C219   C222    1.437   .     S
C219   C348    1.418   .     S
C220   C221    1.437   .     S
C221   C224    1.437   .     S
C221   C222    1.415   .     S
C222   C223    1.437   .     S
C223   C352    1.417   .     S
C225   C256    1.431   .     S
C225   C226    1.417   .     S
C226   C255    1.431   .     S
C227   C230    1.437   .     S
C227   C356    1.415   .     S
C228   C229    1.437   .     S
C229   C232    1.437   .     S
C229   C230    1.418   .     S
C230   C231    1.437   .     S
C231   C234    1.441   .     S
C231   C360    1.416   .     S
C232   C233    1.441   .     S
C233   C236    1.437   .     S
C233   C234    1.416   .     S
C234   C235    1.437   .     S
C235   C238    1.437   .     S
C235   C364    1.418   .     S
C236   C237    1.437   .     S
C237   C240    1.437   .     S
C237   C238    1.415   .     S
C238   C239    1.437   .     S
C239   C242    1.431   .     S
C239   C368    1.417   .     S
C240   C241    1.431   .     S
C241   C242    1.417   .     S
C243   C246    1.437   .     S
C243   C372    1.415   .     S
C244   C245    1.437   .     S
C245   C248    1.437   .     S
C245   C246    1.418   .     S
C246   C247    1.437   .     S
C247   C250    1.441   .     S
C247   C376    1.416   .     S
C248   C249    1.441   .     S
C249   C252    1.437   .     S
C249   C250    1.416   .     S
C250   C251    1.437   .     S
C251   C254    1.437   .     S
C251   C380    1.418   .     S
C252   C253    1.437   .     S
C253   C256    1.437   .     S
C253   C254    1.415   .     S
C254   C255    1.437   .     S
C255   C384    1.417   .     S
C257   C288    1.431   .     S
C257   C258    1.417   .     S
C258   C287    1.431   .     S
C259   C388    1.415   .     S
C259   C262    1.437   .     S
C260   C261    1.437   .     S
C261   C264    1.437   .     S
C261   C262    1.418   .     S
C262   C263    1.437   .     S
C263   C392    1.416   .     S
C263   C266    1.441   .     S
C264   C265    1.441   .     S
C265   C268    1.437   .     S
C265   C266    1.416   .     S
C266   C267    1.437   .     S
C267   C396    1.418   .     S
C267   C270    1.437   .     S
C268   C269    1.437   .     S
C269   C272    1.437   .     S
C269   C270    1.415   .     S
C270   C271    1.437   .     S
C271   C400    1.417   .     S
C271   C274    1.431   .     S
C272   C273    1.431   .     S
C273   C274    1.417   .     S
C275   C404    1.415   .     S
C275   C278    1.437   .     S
C276   C277    1.437   .     S
C277   C280    1.437   .     S
C277   C278    1.418   .     S
C278   C279    1.437   .     S
C279   C408    1.416   .     S
C279   C282    1.441   .     S
C280   C281    1.441   .     S
C281   C284    1.437   .     S
C281   C282    1.416   .     S
C282   C283    1.437   .     S
C283   C412    1.418   .     S
C283   C286    1.437   .     S
C284   C285    1.437   .     S
C285   C288    1.437   .     S
C285   C286    1.415   .     S
C286   C287    1.437   .     S
C287   C416    1.417   .     S
C289   C320    1.431   .     S
C289   C292    1.437   .     S
C289   C290    1.417   .     S
C290   C291    1.437   .     S
C290   C319    1.431   .     S
C291   C420    1.415   .     S
C291   C294    1.437   .     S
C292   C293    1.437   .     S
C293   C296    1.437   .     S
C293   C294    1.418   .     S
C294   C295    1.437   .     S
C295   C424    1.416   .     S
C295   C298    1.441   .     S
C296   C297    1.441   .     S
C297   C300    1.437   .     S
C297   C298    1.416   .     S
C298   C299    1.437   .     S
C299   C428    1.418   .     S
C299   C302    1.437   .     S
C300   C301    1.437   .     S
C301   C304    1.437   .     S
C301   C302    1.415   .     S
C302   C303    1.437   .     S
C303   C432    1.417   .     S
C303   C306    1.431   .     S
C304   C305    1.431   .     S
C305   C308    1.437   .     S
C305   C306    1.417   .     S
C306   C307    1.437   .     S
C307   C436    1.415   .     S
C307   C310    1.437   .     S
C308   C309    1.437   .     S
C309   C312    1.437   .     S
C309   C310    1.418   .     S
C310   C311    1.437   .     S
C311   C440    1.416   .     S
C311   C314    1.441   .     S
C312   C313    1.441   .     S
C313   C316    1.437   .     S
C313   C314    1.416   .     S
C314   C315    1.437   .     S
C315   C444    1.418   .     S
C315   C318    1.437   .     S
C316   C317    1.437   .     S
C317   C320    1.437   .     S
C317   C318    1.415   .     S
C318   C319    1.437   .     S
C319   C448    1.417   .     S
C321   C324    1.437   .     S
C321   C352    1.431   .     S
C321   C322    1.417   .     S
C322   C323    1.437   .     S
C322   C351    1.431   .     S
C323   C452    1.415   .     S
C323   C326    1.437   .     S
C324   C325    1.437   .     S
C325   C328    1.437   .     S
C325   C326    1.418   .     S
C326   C327    1.437   .     S
C327   C456    1.416   .     S
C327   C330    1.441   .     S
C328   C329    1.441   .     S
C329   C332    1.437   .     S
C329   C330    1.416   .     S
C330   C331    1.437   .     S
C331   C460    1.418   .     S
C331   C334    1.437   .     S
C332   C333    1.437   .     S
C333   C336    1.437   .     S
C333   C334    1.415   .     S
C334   C335    1.437   .     S
C335   C464    1.417   .     S
C335   C338    1.431   .     S
C336   C337    1.431   .     S
C337   C340    1.437   .     S
C337   C338    1.417   .     S
C338   C339    1.437   .     S
C339   C468    1.415   .     S
C339   C342    1.437   .     S
C340   C341    1.437   .     S
C341   C344    1.437   .     S
C341   C342    1.418   .     S
C342   C343    1.437   .     S
C343   C472    1.416   .     S
C343   C346    1.441   .     S
C344   C345    1.441   .     S
C345   C348    1.437   .     S
C345   C346    1.416   .     S
C346   C347    1.437   .     S
C347   C476    1.418   .     S
C347   C350    1.437   .     S
C348   C349    1.437   .     S
C349   C352    1.437   .     S
C349   C350    1.415   .     S
C350   C351    1.437   .     S
C351   C480    1.417   .     S
C353   C384    1.431   .     S
C353   C354    1.417   .     S
C354   C383    1.431   .     S
C355   C484    1.415   .     S
C355   C358    1.437   .     S
C356   C357    1.437   .     S
C357   C360    1.437   .     S
C357   C358    1.418   .     S
C358   C359    1.437   .     S
C359   C488    1.416   .     S
C359   C362    1.441   .     S
C360   C361    1.441   .     S
C361   C364    1.437   .     S
C361   C362    1.416   .     S
C362   C363    1.437   .     S
C363   C492    1.418   .     S
C363   C366    1.437   .     S
C364   C365    1.437   .     S
C365   C368    1.437   .     S
C365   C366    1.415   .     S
C366   C367    1.437   .     S
C367   C496    1.417   .     S
C367   C370    1.431   .     S
C368   C369    1.431   .     S
C369   C370    1.417   .     S
C371   C500    1.415   .     S
C371   C374    1.437   .     S
C372   C373    1.437   .     S
C373   C376    1.437   .     S
C373   C374    1.418   .     S
C374   C375    1.437   .     S
C375   C504    1.416   .     S
C375   C378    1.441   .     S
C376   C377    1.441   .     S
C377   C380    1.437   .     S
C377   C378    1.416   .     S
C378   C379    1.437   .     S
C379   C508    1.418   .     S
C379   C382    1.437   .     S
C380   C381    1.437   .     S
C381   C384    1.437   .     S
C381   C382    1.415   .     S
C382   C383    1.437   .     S
C383   C512    1.417   .     S
C385   C416    1.431   .     S
C385   C386    1.417   .     S
C386   C415    1.431   .     S
C387   C390    1.437   .     S
C387   C516    1.415   .     S
C388   C389    1.437   .     S
C389   C392    1.437   .     S
C389   C390    1.418   .     S
C390   C391    1.437   .     S
C391   C394    1.441   .     S
C391   C520    1.416   .     S
C392   C393    1.441   .     S
C393   C396    1.437   .     S
C393   C394    1.416   .     S
C394   C395    1.437   .     S
C395   C398    1.437   .     S
C395   C524    1.418   .     S
C396   C397    1.437   .     S
C397   C400    1.437   .     S
C397   C398    1.415   .     S
C398   C399    1.437   .     S
C399   C402    1.431   .     S
C399   C528    1.417   .     S
C400   C401    1.431   .     S
C401   C402    1.417   .     S
C403   C406    1.437   .     S
C403   C532    1.415   .     S
C404   C405    1.437   .     S
C405   C408    1.437   .     S
C405   C406    1.418   .     S
C406   C407    1.437   .     S
C407   C410    1.441   .     S
C407   C536    1.416   .     S
C408   C409    1.441   .     S
C409   C412    1.437   .     S
C409   C410    1.416   .     S
C410   C411    1.437   .     S
C411   C414    1.437   .     S
C411   C540    1.418   .     S
C412   C413    1.437   .     S
C413   C416    1.437   .     S
C413   C414    1.415   .     S
C414   C415    1.437   .     S
C415   C544    1.417   .     S
C417   C420    1.437   .     S
C417   C448    1.431   .     S
C417   C418    1.417   .     S
C418   C447    1.431   .     S
C418   C419    1.437   .     S
C419   C422    1.437   .     S
C419   C548    1.415   .     S
C420   C421    1.437   .     S
C421   C424    1.437   .     S
C421   C422    1.418   .     S
C422   C423    1.437   .     S
C423   C426    1.441   .     S
C423   C552    1.416   .     S
C424   C425    1.441   .     S
C425   C428    1.437   .     S
C425   C426    1.416   .     S
C426   C427    1.437   .     S
C427   C430    1.437   .     S
C427   C556    1.418   .     S
C428   C429    1.437   .     S
C429   C432    1.437   .     S
C429   C430    1.415   .     S
C430   C431    1.437   .     S
C431   C434    1.431   .     S
C431   C560    1.417   .     S
C432   C433    1.431   .     S
C433   C436    1.437   .     S
C433   C434    1.417   .     S
C434   C435    1.437   .     S
C435   C438    1.437   .     S
C435   C564    1.415   .     S
C436   C437    1.437   .     S
C437   C440    1.437   .     S
C437   C438    1.418   .     S
C438   C439    1.437   .     S
C439   C442    1.441   .     S
C439   C568    1.416   .     S
C440   C441    1.441   .     S
C441   C444    1.437   .     S
C441   C442    1.416   .     S
C442   C443    1.437   .     S
C443   C446    1.437   .     S
C443   C572    1.418   .     S
C444   C445    1.437   .     S
C445   C448    1.437   .     S
C445   C446    1.415   .     S
C446   C447    1.437   .     S
C447   C576    1.417   .     S
C449   C452    1.437   .     S
C449   C480    1.431   .     S
C449   C450    1.417   .     S
C450   C451    1.437   .     S
C450   C479    1.431   .     S
C451   C454    1.437   .     S
C451   C580    1.415   .     S
C452   C453    1.437   .     S
C453   C456    1.437   .     S
C453   C454    1.418   .     S
C454   C455    1.437   .     S
C455   C458    1.441   .     S
C455   C584    1.416   .     S
C456   C457    1.441   .     S
C457   C460    1.437   .     S
C457   C458    1.416   .     S
C458   C459    1.437   .     S
C459   C462    1.437   .     S
C459   C588    1.418   .     S
C460   C461    1.437   .     S
C461   C464    1.437   .     S
C461   C462    1.415   .     S
C462   C463    1.437   .     S
C463   C466    1.431   .     S
C463   C592    1.417   .     S
C464   C465    1.431   .     S
C465   C468    1.437   .     S
C465   C466    1.417   .     S
C466   C467    1.437   .     S
C467   C470    1.437   .     S
C467   C596    1.415   .     S
C468   C469    1.437   .     S
C469   C472    1.437   .     S
C469   C470    1.418   .     S
C470   C471    1.437   .     S
C471   C474    1.441   .     S
C471   C600    1.416   .     S
C472   C473    1.441   .     S
C473   C476    1.437   .     S
C473   C474    1.416   .     S
C474   C475    1.437   .     S
C475   C478    1.437   .     S
C475   C604    1.418   .     S
C476   C477    1.437   .     S
C477   C480    1.437   .     S
C477   C478    1.415   .     S
C478   C479    1.437   .     S
C479   C608    1.417   .     S
C481   C512    1.431   .     S
C481   C482    1.417   .     S
C482   C511    1.431   .     S
C483   C486    1.437   .     S
C483   C612    1.415   .     S
C484   C485    1.437   .     S
C485   C488    1.437   .     S
C485   C486    1.418   .     S
C486   C487    1.437   .     S
C487   C490    1.441   .     S
C487   C616    1.416   .     S
C488   C489    1.441   .     S
C489   C492    1.437   .     S
C489   C490    1.416   .     S
C490   C491    1.437   .     S
C491   C494    1.437   .     S
C491   C620    1.418   .     S
C492   C493    1.437   .     S
C493   C496    1.437   .     S
C493   C494    1.415   .     S
C494   C495    1.437   .     S
C495   C498    1.431   .     S
C495   C624    1.417   .     S
C496   C497    1.431   .     S
C497   C498    1.417   .     S
C499   C502    1.437   .     S
C499   C628    1.415   .     S
C500   C501    1.437   .     S
C501   C504    1.437   .     S
C501   C502    1.418   .     S
C502   C503    1.437   .     S
C503   C506    1.441   .     S
C503   C632    1.416   .     S
C504   C505    1.441   .     S
C505   C508    1.437   .     S
C505   C506    1.416   .     S
C506   C507    1.437   .     S
C507   C510    1.437   .     S
C507   C636    1.418   .     S
C508   C509    1.437   .     S
C509   C512    1.437   .     S
C509   C510    1.415   .     S
C510   C511    1.437   .     S
C511   C640    1.417   .     S
C513   C544    1.431   .     S
C513   C514    1.417   .     S
C514   C543    1.431   .     S
C515   C518    1.437   .     S
C515   C644    1.415   .     S
C516   C517    1.437   .     S
C517   C520    1.437   .     S
C517   C518    1.418   .     S
C518   C519    1.437   .     S
C519   C522    1.441   .     S
C519   C648    1.416   .     S
C520   C521    1.441   .     S
C521   C524    1.437   .     S
C521   C522    1.416   .     S
C522   C523    1.437   .     S
C523   C526    1.437   .     S
C523   C652    1.418   .     S
C524   C525    1.437   .     S
C525   C528    1.437   .     S
C525   C526    1.415   .     S
C526   C527    1.437   .     S
C527   C530    1.431   .     S
C527   C656    1.417   .     S
C528   C529    1.431   .     S
C529   C530    1.417   .     S
C531   C534    1.437   .     S
C531   C660    1.415   .     S
C532   C533    1.437   .     S
C533   C536    1.437   .     S
C533   C534    1.418   .     S
C534   C535    1.437   .     S
C535   C538    1.441   .     S
C535   C664    1.416   .     S
C536   C537    1.441   .     S
C537   C540    1.437   .     S
C537   C538    1.416   .     S
C538   C539    1.437   .     S
C539   C542    1.437   .     S
C539   C668    1.418   .     S
C540   C541    1.437   .     S
C541   C544    1.437   .     S
C541   C542    1.415   .     S
C542   C543    1.437   .     S
C543   C672    1.417   .     S
C545   C576    1.431   .     S
C545   C548    1.437   .     S
C545   C546    1.417   .     S
C546   C575    1.431   .     S
C546   C547    1.437   .     S
C547   C550    1.437   .     S
C547   C676    1.415   .     S
C548   C549    1.437   .     S
C549   C552    1.437   .     S
C549   C550    1.418   .     S
C550   C551    1.437   .     S
C551   C554    1.441   .     S
C551   C680    1.416   .     S
C552   C553    1.441   .     S
C553   C556    1.437   .     S
C553   C554    1.416   .     S
C554   C555    1.437   .     S
C555   C558    1.437   .     S
C555   C684    1.418   .     S
C556   C557    1.437   .     S
C557   C560    1.437   .     S
C557   C558    1.415   .     S
C558   C559    1.437   .     S
C559   C562    1.431   .     S
C559   C688    1.417   .     S
C560   C561    1.431   .     S
C561   C564    1.437   .     S
C561   C562    1.417   .     S
C562   C563    1.437   .     S
C563   C566    1.437   .     S
C563   C692    1.415   .     S
C564   C565    1.437   .     S
C565   C568    1.437   .     S
C565   C566    1.418   .     S
C566   C567    1.437   .     S
C567   C570    1.441   .     S
C567   C696    1.416   .     S
C568   C569    1.441   .     S
C569   C572    1.437   .     S
C569   C570    1.416   .     S
C570   C571    1.437   .     S
C571   C574    1.437   .     S
C571   C700    1.418   .     S
C572   C573    1.437   .     S
C573   C576    1.437   .     S
C573   C574    1.415   .     S
C574   C575    1.437   .     S
C575   C704    1.417   .     S
C577   C580    1.437   .     S
C577   C608    1.431   .     S
C577   C578    1.417   .     S
C578   C579    1.437   .     S
C578   C607    1.431   .     S
C579   C582    1.437   .     S
C579   C708    1.415   .     S
C580   C581    1.437   .     S
C581   C584    1.437   .     S
C581   C582    1.418   .     S
C582   C583    1.437   .     S
C583   C586    1.441   .     S
C583   C712    1.416   .     S
C584   C585    1.441   .     S
C585   C588    1.437   .     S
C585   C586    1.416   .     S
C586   C587    1.437   .     S
C587   C590    1.437   .     S
C587   C716    1.418   .     S
C588   C589    1.437   .     S
C589   C592    1.437   .     S
C589   C590    1.415   .     S
C590   C591    1.437   .     S
C591   C594    1.431   .     S
C591   C720    1.417   .     S
C592   C593    1.431   .     S
C593   C596    1.437   .     S
C593   C594    1.417   .     S
C594   C595    1.437   .     S
C595   C598    1.437   .     S
C595   C724    1.415   .     S
C596   C597    1.437   .     S
C597   C600    1.437   .     S
C597   C598    1.418   .     S
C598   C599    1.437   .     S
C599   C602    1.441   .     S
C599   C728    1.416   .     S
C600   C601    1.441   .     S
C601   C604    1.437   .     S
C601   C602    1.416   .     S
C602   C603    1.437   .     S
C603   C606    1.437   .     S
C603   C732    1.418   .     S
C604   C605    1.437   .     S
C605   C608    1.437   .     S
C605   C606    1.415   .     S
C606   C607    1.437   .     S
C607   C736    1.417   .     S
C609   C640    1.431   .     S
C609   C610    1.417   .     S
C610   C639    1.431   .     S
C611   C614    1.437   .     S
C611   C740    1.415   .     S
C612   C613    1.437   .     S
C613   C616    1.437   .     S
C613   C614    1.418   .     S
C614   C615    1.437   .     S
C615   C618    1.441   .     S
C615   C744    1.416   .     S
C616   C617    1.441   .     S
C617   C620    1.437   .     S
C617   C618    1.416   .     S
C618   C619    1.437   .     S
C619   C622    1.437   .     S
C619   C748    1.418   .     S
C620   C621    1.437   .     S
C621   C624    1.437   .     S
C621   C622    1.415   .     S
C622   C623    1.437   .     S
C623   C626    1.431   .     S
C623   C752    1.417   .     S
C624   C625    1.431   .     S
C625   C626    1.417   .     S
C627   C630    1.437   .     S
C627   C756    1.415   .     S
C628   C629    1.437   .     S
C629   C632    1.437   .     S
C629   C630    1.418   .     S
C630   C631    1.437   .     S
C631   C634    1.441   .     S
C631   C760    1.416   .     S
C632   C633    1.441   .     S
C633   C636    1.437   .     S
C633   C634    1.416   .     S
C634   C635    1.437   .     S
C635   C638    1.437   .     S
C635   C764    1.418   .     S
C636   C637    1.437   .     S
C637   C640    1.437   .     S
C637   C638    1.415   .     S
C638   C639    1.437   .     S
C639   C768    1.417   .     S
C641   C642    1.417   .     S
C641   C672    1.431   .     S
C642   C671    1.431   .     S
C643   C646    1.437   .     S
C644   C645    1.437   .     S
C645   C646    1.418   .     S
C645   C648    1.437   .     S
C646   C647    1.437   .     S
C647   C650    1.441   .     S
C648   C649    1.441   .     S
C649   C650    1.416   .     S
C649   C652    1.437   .     S
C650   C651    1.437   .     S
C651   C654    1.437   .     S
C652   C653    1.437   .     S
C653   C654    1.415   .     S
C653   C656    1.437   .     S
C654   C655    1.437   .     S
C655   C658    1.431   .     S
C656   C657    1.431   .     S
C657   C658    1.417   .     S
C659   C662    1.437   .     S
C660   C661    1.437   .     S
C661   C662    1.418   .     S
C661   C664    1.437   .     S
C662   C663    1.437   .     S
C663   C666    1.441   .     S
C664   C665    1.441   .     S
C665   C666    1.416   .     S
C665   C668    1.437   .     S
C666   C667    1.437   .     S
C667   C670    1.437   .     S
C668   C669    1.437   .     S
C669   C670    1.415   .     S
C669   C672    1.437   .     S
C670   C671    1.437   .     S
C673   C674    1.417   .     S
C673   C676    1.437   .     S
C673   C704    1.431   .     S
C674   C675    1.437   .     S
C674   C703    1.431   .     S
C675   C678    1.437   .     S
C676   C677    1.437   .     S
C677   C678    1.418   .     S
C677   C680    1.437   .     S
C678   C679    1.437   .     S
C679   C682    1.441   .     S
C680   C681    1.441   .     S
C681   C682    1.416   .     S
C681   C684    1.437   .     S
C682   C683    1.437   .     S
C683   C686    1.437   .     S
C684   C685    1.437   .     S
C685   C686    1.415   .     S
C685   C688    1.437   .     S
C686   C687    1.437   .     S
C687   C690    1.431   .     S
C688   C689    1.431   .     S
C689   C690    1.417   .     S
C689   C692    1.437   .     S
C690   C691    1.437   .     S
C691   C694    1.437   .     S
C692   C693    1.437   .     S
C693   C694    1.418   .     S
C693   C696    1.437   .     S
C694   C695    1.437   .     S
C695   C698    1.441   .     S
C696   C697    1.441   .     S
C697   C698    1.416   .     S
C697   C700    1.437   .     S
C698   C699    1.437   .     S
C699   C702    1.437   .     S
C700   C701    1.437   .     S
C701   C702    1.415   .     S
C701   C704    1.437   .     S
C702   C703    1.437   .     S
C705   C706    1.417   .     S
C705   C708    1.437   .     S
C705   C736    1.431   .     S
C706   C707    1.437   .     S
C706   C735    1.431   .     S
C707   C710    1.437   .     S
C708   C709    1.437   .     S
C709   C710    1.418   .     S
C709   C712    1.437   .     S
C710   C711    1.437   .     S
C711   C714    1.441   .     S
C712   C713    1.441   .     S
C713   C714    1.416   .     S
C713   C716    1.437   .     S
C714   C715    1.437   .     S
C715   C718    1.437   .     S
C716   C717    1.437   .     S
C717   C718    1.415   .     S
C717   C720    1.437   .     S
C718   C719    1.437   .     S
C719   C722    1.431   .     S
C720   C721    1.431   .     S
C721   C722    1.417   .     S
C721   C724    1.437   .     S
C722   C723    1.437   .     S
C723   C726    1.437   .     S
C724   C725    1.437   .     S
C725   C726    1.418   .     S
C725   C728    1.437   .     S
C726   C727    1.437   .     S
C727   C730    1.441   .     S
C728   C729    1.441   .     S
C729   C730    1.416   .     S
C729   C732    1.437   .     S
C730   C731    1.437   .     S
C731   C734    1.437   .     S
C732   C733    1.437   .     S
C733   C734    1.415   .     S
C733   C736    1.437   .     S
C734   C735    1.437   .     S
C737   C738    1.417   .     S
C737   C768    1.431   .     S
C738   C767    1.431   .     S
C739   C742    1.437   .     S
C740   C741    1.437   .     S
C741   C742    1.418   .     S
C741   C744    1.437   .     S
C742   C743    1.437   .     S
C743   C746    1.441   .     S
C744   C745    1.441   .     S
C745   C746    1.416   .     S
C745   C748    1.437   .     S
C746   C747    1.437   .     S
C747   C750    1.437   .     S
C748   C749    1.437   .     S
C749   C750    1.415   .     S
C749   C752    1.437   .     S
C750   C751    1.437   .     S
C751   C754    1.431   .     S
C752   C753    1.431   .     S
C753   C754    1.417   .     S
C755   C758    1.437   .     S
C756   C757    1.437   .     S
C757   C758    1.418   .     S
C757   C760    1.437   .     S
C758   C759    1.437   .     S
C759   C762    1.441   .     S
C760   C761    1.441   .     S
C761   C762    1.416   .     S
C761   C764    1.437   .     S
C762   C763    1.437   .     S
C763   C766    1.437   .     S
C764   C765    1.437   .     S
C765   C766    1.415   .     S
C765   C768    1.437   .     S
C766   C767    1.437   .     S
