data_90
_audit_creation_date              2023-12-23
_audit_creation_method            'Materials Studio'
_symmetry_space_group_name_H-M    'P1'
_symmetry_Int_Tables_number       1
_symmetry_cell_setting            triclinic
loop_
_symmetry_equiv_pos_as_xyz
  x,y,z
_cell_length_a                    20.7702
_cell_length_b                    20.7829
_cell_length_c                    25.4918
_cell_angle_alpha                 89.9992
_cell_angle_beta                  89.9984
_cell_angle_gamma                 60.0203
loop_
_atom_site_label
_atom_site_type_symbol
_atom_site_fract_x
_atom_site_fract_y
_atom_site_fract_z
_atom_site_U_iso_or_equiv
_atom_site_adp_type
_atom_site_occupancy
C1     C     0.44594   0.93198   0.03780   0.00000  Uiso   1.00
C2     C     0.42253   1.00000   0.06554   0.00000  Uiso   1.00
C3     C     0.44594   0.93198   0.14881   0.00000  Uiso   1.00
C4     C     0.37792   0.06802   0.03780   0.00000  Uiso   1.00
C5     C     0.31809   0.12787   0.06547   0.00000  Uiso   1.00
C6     C     0.42253   1.00000   0.12108   0.00000  Uiso   1.00
C7     C     0.37792   0.06802   0.14881   0.00000  Uiso   1.00
C8     C     0.25003   0.17253   0.03774   0.00000  Uiso   1.00
C9     C     0.18195   0.19599   0.06547   0.00000  Uiso   1.00
C10    C     0.31809   0.12787   0.12114   0.00000  Uiso   1.00
C11    C     0.25003   0.17253   0.14887   0.00000  Uiso   1.00
C12    C     0.12206   0.19599   0.03780   0.00000  Uiso   1.00
C13    C     0.07744   0.17253   0.06553   0.00000  Uiso   1.00
C14    C     0.18195   0.19599   0.12114   0.00000  Uiso   1.00
C15    C     0.12206   0.19599   0.14881   0.00000  Uiso   1.00
C16    C     0.05404   0.12787   0.03780   0.00000  Uiso   1.00
C17    C     0.05406   0.06802   0.06547   0.00000  Uiso   1.00
C18    C     0.07744   0.17253   0.12108   0.00000  Uiso   1.00
C19    C     0.05404   0.12787   0.14881   0.00000  Uiso   1.00
C20    C     0.07747   0.00000   0.03774   0.00000  Uiso   1.00
C21    C     0.12208   0.93198   0.06547   0.00000  Uiso   1.00
C22    C     0.05406   0.06802   0.12114   0.00000  Uiso   1.00
C23    C     0.07747   1.00000   0.14887   0.00000  Uiso   1.00
C24    C     0.18191   0.87213   0.03780   0.00000  Uiso   1.00
C25    C     0.24997   0.82747   0.06554   0.00000  Uiso   1.00
C26    C     0.12208   0.93198   0.12114   0.00000  Uiso   1.00
C27    C     0.18191   0.87213   0.14881   0.00000  Uiso   1.00
C28    C     0.31805   0.80401   0.03780   0.00000  Uiso   1.00
C29    C     0.37794   0.80401   0.06547   0.00000  Uiso   1.00
C30    C     0.24996   0.82747   0.12108   0.00000  Uiso   1.00
C31    C     0.31805   0.80401   0.14881   0.00000  Uiso   1.00
C32    C     0.42256   0.82747   0.03774   0.00000  Uiso   1.00
C33    C     0.44595   0.87213   0.06547   0.00000  Uiso   1.00
C34    C     0.37793   0.80401   0.12114   0.00000  Uiso   1.00
C35    C     0.42256   0.82747   0.14887   0.00000  Uiso   1.00
C36    C     0.44595   0.87213   0.12114   0.00000  Uiso   1.00
C37    C     0.94594   0.43198   0.03780   0.00000  Uiso   1.00
C38    C     0.92252   0.50000   0.06553   0.00000  Uiso   1.00
C39    C     0.94594   0.43198   0.14881   0.00000  Uiso   1.00
C40    C     0.87791   0.56802   0.03780   0.00000  Uiso   1.00
C41    C     0.81809   0.62787   0.06547   0.00000  Uiso   1.00
C42    C     0.92252   0.50000   0.12108   0.00000  Uiso   1.00
C43    C     0.87791   0.56802   0.14881   0.00000  Uiso   1.00
C44    C     0.75003   0.67253   0.03774   0.00000  Uiso   1.00
C45    C     0.68195   0.69599   0.06547   0.00000  Uiso   1.00
C46    C     0.81809   0.62787   0.12114   0.00000  Uiso   1.00
C47    C     0.75003   0.67253   0.14887   0.00000  Uiso   1.00
C48    C     0.62206   0.69599   0.03780   0.00000  Uiso   1.00
C49    C     0.57744   0.67253   0.06553   0.00000  Uiso   1.00
C50    C     0.68195   0.69599   0.12114   0.00000  Uiso   1.00
C51    C     0.62206   0.69599   0.14881   0.00000  Uiso   1.00
C52    C     0.55404   0.62787   0.03780   0.00000  Uiso   1.00
C53    C     0.55406   0.56802   0.06547   0.00000  Uiso   1.00
C54    C     0.57744   0.67253   0.12108   0.00000  Uiso   1.00
C55    C     0.55404   0.62787   0.14881   0.00000  Uiso   1.00
C56    C     0.57747   0.50000   0.03774   0.00000  Uiso   1.00
C57    C     0.62208   0.43198   0.06547   0.00000  Uiso   1.00
C58    C     0.55406   0.56802   0.12114   0.00000  Uiso   1.00
C59    C     0.57747   0.50000   0.14887   0.00000  Uiso   1.00
C60    C     0.68191   0.37213   0.03780   0.00000  Uiso   1.00
C61    C     0.74996   0.32747   0.06553   0.00000  Uiso   1.00
C62    C     0.62208   0.43198   0.12114   0.00000  Uiso   1.00
C63    C     0.68191   0.37213   0.14881   0.00000  Uiso   1.00
C64    C     0.81805   0.30401   0.03780   0.00000  Uiso   1.00
C65    C     0.87793   0.30401   0.06547   0.00000  Uiso   1.00
C66    C     0.74996   0.32747   0.12108   0.00000  Uiso   1.00
C67    C     0.81805   0.30401   0.14881   0.00000  Uiso   1.00
C68    C     0.92256   0.32747   0.03774   0.00000  Uiso   1.00
C69    C     0.94595   0.37213   0.06547   0.00000  Uiso   1.00
C70    C     0.87793   0.30401   0.12114   0.00000  Uiso   1.00
C71    C     0.92256   0.32747   0.14887   0.00000  Uiso   1.00
C72    C     0.94595   0.37213   0.12114   0.00000  Uiso   1.00
C73    C     0.44594   0.43198   0.03780   0.00000  Uiso   1.00
C74    C     0.42253   0.50000   0.06553   0.00000  Uiso   1.00
C75    C     0.44594   0.43198   0.14881   0.00000  Uiso   1.00
C76    C     0.37792   0.56802   0.03780   0.00000  Uiso   1.00
C77    C     0.31809   0.62787   0.06547   0.00000  Uiso   1.00
C78    C     0.42253   0.50000   0.12108   0.00000  Uiso   1.00
C79    C     0.37792   0.56802   0.14881   0.00000  Uiso   1.00
C80    C     0.25003   0.67253   0.03774   0.00000  Uiso   1.00
C81    C     0.18195   0.69599   0.06547   0.00000  Uiso   1.00
C82    C     0.31809   0.62787   0.12114   0.00000  Uiso   1.00
C83    C     0.25003   0.67253   0.14887   0.00000  Uiso   1.00
C84    C     0.12206   0.69599   0.03780   0.00000  Uiso   1.00
C85    C     0.07744   0.67253   0.06553   0.00000  Uiso   1.00
C86    C     0.18195   0.69599   0.12114   0.00000  Uiso   1.00
C87    C     0.12206   0.69599   0.14881   0.00000  Uiso   1.00
C88    C     0.05404   0.62787   0.03780   0.00000  Uiso   1.00
C89    C     0.05406   0.56802   0.06547   0.00000  Uiso   1.00
C90    C     0.07744   0.67253   0.12108   0.00000  Uiso   1.00
C91    C     0.05404   0.62787   0.14881   0.00000  Uiso   1.00
C92    C     0.07747   0.50000   0.03774   0.00000  Uiso   1.00
C93    C     0.12208   0.43198   0.06547   0.00000  Uiso   1.00
C94    C     0.05406   0.56802   0.12114   0.00000  Uiso   1.00
C95    C     0.07747   0.50000   0.14887   0.00000  Uiso   1.00
C96    C     0.18191   0.37213   0.03780   0.00000  Uiso   1.00
C97    C     0.24997   0.32747   0.06553   0.00000  Uiso   1.00
C98    C     0.12208   0.43198   0.12114   0.00000  Uiso   1.00
C99    C     0.18191   0.37213   0.14881   0.00000  Uiso   1.00
C100   C     0.31805   0.30401   0.03780   0.00000  Uiso   1.00
C101   C     0.37794   0.30401   0.06547   0.00000  Uiso   1.00
C102   C     0.24996   0.32747   0.12108   0.00000  Uiso   1.00
C103   C     0.31805   0.30401   0.14881   0.00000  Uiso   1.00
C104   C     0.42256   0.32747   0.03774   0.00000  Uiso   1.00
C105   C     0.44595   0.37213   0.06547   0.00000  Uiso   1.00
C106   C     0.37794   0.30401   0.12114   0.00000  Uiso   1.00
C107   C     0.42256   0.32747   0.14887   0.00000  Uiso   1.00
C108   C     0.44595   0.37213   0.12114   0.00000  Uiso   1.00
C109   C     0.94594   0.93198   0.03780   0.00000  Uiso   1.00
C110   C     0.92252   1.00000   0.06554   0.00000  Uiso   1.00
C111   C     0.94594   0.93198   0.14881   0.00000  Uiso   1.00
C112   C     0.87791   0.06802   0.03780   0.00000  Uiso   1.00
C113   C     0.81809   0.12787   0.06547   0.00000  Uiso   1.00
C114   C     0.92252   1.00000   0.12108   0.00000  Uiso   1.00
C115   C     0.87791   0.06802   0.14881   0.00000  Uiso   1.00
C116   C     0.75003   0.17253   0.03774   0.00000  Uiso   1.00
C117   C     0.68195   0.19599   0.06547   0.00000  Uiso   1.00
C118   C     0.81809   0.12787   0.12114   0.00000  Uiso   1.00
C119   C     0.75003   0.17253   0.14887   0.00000  Uiso   1.00
C120   C     0.62206   0.19599   0.03780   0.00000  Uiso   1.00
C121   C     0.57744   0.17253   0.06554   0.00000  Uiso   1.00
C122   C     0.68195   0.19599   0.12114   0.00000  Uiso   1.00
C123   C     0.62206   0.19599   0.14881   0.00000  Uiso   1.00
C124   C     0.55404   0.12787   0.03780   0.00000  Uiso   1.00
C125   C     0.55406   0.06802   0.06547   0.00000  Uiso   1.00
C126   C     0.57744   0.17253   0.12108   0.00000  Uiso   1.00
C127   C     0.55404   0.12787   0.14881   0.00000  Uiso   1.00
C128   C     0.57747   0.00000   0.03774   0.00000  Uiso   1.00
C129   C     0.62208   0.93198   0.06547   0.00000  Uiso   1.00
C130   C     0.55406   0.06802   0.12114   0.00000  Uiso   1.00
C131   C     0.57747   1.00000   0.14887   0.00000  Uiso   1.00
C132   C     0.68191   0.87213   0.03780   0.00000  Uiso   1.00
C133   C     0.74996   0.82747   0.06553   0.00000  Uiso   1.00
C134   C     0.62208   0.93198   0.12114   0.00000  Uiso   1.00
C135   C     0.68191   0.87213   0.14881   0.00000  Uiso   1.00
C136   C     0.81805   0.80401   0.03780   0.00000  Uiso   1.00
C137   C     0.87793   0.80401   0.06547   0.00000  Uiso   1.00
C138   C     0.74996   0.82747   0.12108   0.00000  Uiso   1.00
C139   C     0.81805   0.80401   0.14881   0.00000  Uiso   1.00
C140   C     0.92256   0.82747   0.03774   0.00000  Uiso   1.00
C141   C     0.94595   0.87213   0.06547   0.00000  Uiso   1.00
C142   C     0.87793   0.80401   0.12114   0.00000  Uiso   1.00
C143   C     0.92256   0.82747   0.14887   0.00000  Uiso   1.00
C144   C     0.94595   0.87213   0.12114   0.00000  Uiso   1.00
C145   C     0.44594   0.93198   0.20447   0.00000  Uiso   1.00
C146   C     0.42253   0.00000   0.23220   0.00000  Uiso   1.00
C147   C     0.44594   0.93198   0.31547   0.00000  Uiso   1.00
C148   C     0.37792   0.06802   0.20447   0.00000  Uiso   1.00
C149   C     0.31809   0.12787   0.23214   0.00000  Uiso   1.00
C150   C     0.42253   1.00000   0.28774   0.00000  Uiso   1.00
C151   C     0.37792   0.06802   0.31547   0.00000  Uiso   1.00
C152   C     0.25003   0.17253   0.20441   0.00000  Uiso   1.00
C153   C     0.18195   0.19599   0.23214   0.00000  Uiso   1.00
C154   C     0.31809   0.12787   0.28780   0.00000  Uiso   1.00
C155   C     0.25003   0.17253   0.31553   0.00000  Uiso   1.00
C156   C     0.12206   0.19599   0.20447   0.00000  Uiso   1.00
C157   C     0.07744   0.17253   0.23220   0.00000  Uiso   1.00
C158   C     0.18195   0.19599   0.28780   0.00000  Uiso   1.00
C159   C     0.12206   0.19599   0.31547   0.00000  Uiso   1.00
C160   C     0.05404   0.12787   0.20447   0.00000  Uiso   1.00
C161   C     0.05406   0.06802   0.23214   0.00000  Uiso   1.00
C162   C     0.07744   0.17253   0.28774   0.00000  Uiso   1.00
C163   C     0.05404   0.12787   0.31547   0.00000  Uiso   1.00
C164   C     0.07747   1.00000   0.20441   0.00000  Uiso   1.00
C165   C     0.12208   0.93198   0.23214   0.00000  Uiso   1.00
C166   C     0.05406   0.06802   0.28780   0.00000  Uiso   1.00
C167   C     0.07747   0.00000   0.31554   0.00000  Uiso   1.00
C168   C     0.18191   0.87213   0.20447   0.00000  Uiso   1.00
C169   C     0.24996   0.82747   0.23220   0.00000  Uiso   1.00
C170   C     0.12208   0.93198   0.28780   0.00000  Uiso   1.00
C171   C     0.18191   0.87213   0.31547   0.00000  Uiso   1.00
C172   C     0.31805   0.80401   0.20447   0.00000  Uiso   1.00
C173   C     0.37794   0.80401   0.23214   0.00000  Uiso   1.00
C174   C     0.24996   0.82747   0.28774   0.00000  Uiso   1.00
C175   C     0.31805   0.80401   0.31547   0.00000  Uiso   1.00
C176   C     0.42256   0.82747   0.20441   0.00000  Uiso   1.00
C177   C     0.44595   0.87213   0.23214   0.00000  Uiso   1.00
C178   C     0.37793   0.80401   0.28780   0.00000  Uiso   1.00
C179   C     0.42256   0.82747   0.31553   0.00000  Uiso   1.00
C180   C     0.44595   0.87213   0.28780   0.00000  Uiso   1.00
C181   C     0.94594   0.43198   0.20447   0.00000  Uiso   1.00
C182   C     0.92252   0.50000   0.23220   0.00000  Uiso   1.00
C183   C     0.94594   0.43198   0.31547   0.00000  Uiso   1.00
C184   C     0.87791   0.56802   0.20447   0.00000  Uiso   1.00
C185   C     0.81809   0.62787   0.23214   0.00000  Uiso   1.00
C186   C     0.92252   0.50000   0.28774   0.00000  Uiso   1.00
C187   C     0.87791   0.56802   0.31547   0.00000  Uiso   1.00
C188   C     0.75003   0.67253   0.20441   0.00000  Uiso   1.00
C189   C     0.68195   0.69599   0.23214   0.00000  Uiso   1.00
C190   C     0.81809   0.62787   0.28780   0.00000  Uiso   1.00
C191   C     0.75003   0.67253   0.31553   0.00000  Uiso   1.00
C192   C     0.62206   0.69599   0.20447   0.00000  Uiso   1.00
C193   C     0.57744   0.67253   0.23220   0.00000  Uiso   1.00
C194   C     0.68195   0.69599   0.28780   0.00000  Uiso   1.00
C195   C     0.62206   0.69599   0.31547   0.00000  Uiso   1.00
C196   C     0.55404   0.62787   0.20447   0.00000  Uiso   1.00
C197   C     0.55406   0.56802   0.23214   0.00000  Uiso   1.00
C198   C     0.57744   0.67253   0.28774   0.00000  Uiso   1.00
C199   C     0.55404   0.62787   0.31547   0.00000  Uiso   1.00
C200   C     0.57747   0.50000   0.20441   0.00000  Uiso   1.00
C201   C     0.62208   0.43198   0.23214   0.00000  Uiso   1.00
C202   C     0.55406   0.56802   0.28780   0.00000  Uiso   1.00
C203   C     0.57747   0.50000   0.31553   0.00000  Uiso   1.00
C204   C     0.68191   0.37213   0.20447   0.00000  Uiso   1.00
C205   C     0.74996   0.32747   0.23220   0.00000  Uiso   1.00
C206   C     0.62208   0.43198   0.28780   0.00000  Uiso   1.00
C207   C     0.68191   0.37213   0.31547   0.00000  Uiso   1.00
C208   C     0.81805   0.30401   0.20447   0.00000  Uiso   1.00
C209   C     0.87793   0.30401   0.23214   0.00000  Uiso   1.00
C210   C     0.74996   0.32747   0.28774   0.00000  Uiso   1.00
C211   C     0.81805   0.30401   0.31547   0.00000  Uiso   1.00
C212   C     0.92256   0.32747   0.20441   0.00000  Uiso   1.00
C213   C     0.94595   0.37213   0.23214   0.00000  Uiso   1.00
C214   C     0.87793   0.30401   0.28780   0.00000  Uiso   1.00
C215   C     0.92256   0.32747   0.31553   0.00000  Uiso   1.00
C216   C     0.94595   0.37213   0.28780   0.00000  Uiso   1.00
C217   C     0.44594   0.43198   0.20447   0.00000  Uiso   1.00
C218   C     0.42253   0.50000   0.23220   0.00000  Uiso   1.00
C219   C     0.44594   0.43198   0.31547   0.00000  Uiso   1.00
C220   C     0.37792   0.56802   0.20447   0.00000  Uiso   1.00
C221   C     0.31809   0.62787   0.23214   0.00000  Uiso   1.00
C222   C     0.42253   0.50000   0.28774   0.00000  Uiso   1.00
C223   C     0.37792   0.56802   0.31547   0.00000  Uiso   1.00
C224   C     0.25003   0.67253   0.20441   0.00000  Uiso   1.00
C225   C     0.18195   0.69599   0.23214   0.00000  Uiso   1.00
C226   C     0.31809   0.62787   0.28780   0.00000  Uiso   1.00
C227   C     0.25003   0.67253   0.31553   0.00000  Uiso   1.00
C228   C     0.12206   0.69599   0.20447   0.00000  Uiso   1.00
C229   C     0.07744   0.67253   0.23220   0.00000  Uiso   1.00
C230   C     0.18195   0.69599   0.28780   0.00000  Uiso   1.00
C231   C     0.12206   0.69599   0.31547   0.00000  Uiso   1.00
C232   C     0.05404   0.62787   0.20447   0.00000  Uiso   1.00
C233   C     0.05406   0.56802   0.23214   0.00000  Uiso   1.00
C234   C     0.07744   0.67253   0.28774   0.00000  Uiso   1.00
C235   C     0.05404   0.62787   0.31547   0.00000  Uiso   1.00
C236   C     0.07747   0.50000   0.20441   0.00000  Uiso   1.00
C237   C     0.12208   0.43198   0.23214   0.00000  Uiso   1.00
C238   C     0.05406   0.56802   0.28780   0.00000  Uiso   1.00
C239   C     0.07747   0.50000   0.31553   0.00000  Uiso   1.00
C240   C     0.18191   0.37213   0.20447   0.00000  Uiso   1.00
C241   C     0.24996   0.32747   0.23220   0.00000  Uiso   1.00
C242   C     0.12208   0.43198   0.28780   0.00000  Uiso   1.00
C243   C     0.18191   0.37213   0.31547   0.00000  Uiso   1.00
C244   C     0.31805   0.30401   0.20447   0.00000  Uiso   1.00
C245   C     0.37794   0.30401   0.23214   0.00000  Uiso   1.00
C246   C     0.24996   0.32747   0.28774   0.00000  Uiso   1.00
C247   C     0.31805   0.30401   0.31547   0.00000  Uiso   1.00
C248   C     0.42256   0.32747   0.20441   0.00000  Uiso   1.00
C249   C     0.44595   0.37213   0.23214   0.00000  Uiso   1.00
C250   C     0.37794   0.30401   0.28780   0.00000  Uiso   1.00
C251   C     0.42256   0.32747   0.31553   0.00000  Uiso   1.00
C252   C     0.44595   0.37213   0.28780   0.00000  Uiso   1.00
C253   C     0.94594   0.93198   0.20447   0.00000  Uiso   1.00
C254   C     0.92252   1.00000   0.23220   0.00000  Uiso   1.00
C255   C     0.94594   0.93198   0.31547   0.00000  Uiso   1.00
C256   C     0.87791   0.06802   0.20447   0.00000  Uiso   1.00
C257   C     0.81809   0.12787   0.23214   0.00000  Uiso   1.00
C258   C     0.92252   0.00000   0.28774   0.00000  Uiso   1.00
C259   C     0.87791   0.06802   0.31547   0.00000  Uiso   1.00
C260   C     0.75003   0.17253   0.20441   0.00000  Uiso   1.00
C261   C     0.68195   0.19599   0.23214   0.00000  Uiso   1.00
C262   C     0.81809   0.12787   0.28780   0.00000  Uiso   1.00
C263   C     0.75003   0.17253   0.31554   0.00000  Uiso   1.00
C264   C     0.62206   0.19599   0.20447   0.00000  Uiso   1.00
C265   C     0.57744   0.17253   0.23220   0.00000  Uiso   1.00
C266   C     0.68195   0.19599   0.28780   0.00000  Uiso   1.00
C267   C     0.62206   0.19599   0.31547   0.00000  Uiso   1.00
C268   C     0.55404   0.12787   0.20447   0.00000  Uiso   1.00
C269   C     0.55406   0.06802   0.23214   0.00000  Uiso   1.00
C270   C     0.57744   0.17253   0.28774   0.00000  Uiso   1.00
C271   C     0.55404   0.12787   0.31547   0.00000  Uiso   1.00
C272   C     0.57747   1.00000   0.20441   0.00000  Uiso   1.00
C273   C     0.62208   0.93198   0.23214   0.00000  Uiso   1.00
C274   C     0.55406   0.06802   0.28780   0.00000  Uiso   1.00
C275   C     0.57747   1.00000   0.31553   0.00000  Uiso   1.00
C276   C     0.68191   0.87213   0.20447   0.00000  Uiso   1.00
C277   C     0.74996   0.82747   0.23220   0.00000  Uiso   1.00
C278   C     0.62208   0.93198   0.28780   0.00000  Uiso   1.00
C279   C     0.68191   0.87213   0.31547   0.00000  Uiso   1.00
C280   C     0.81805   0.80401   0.20447   0.00000  Uiso   1.00
C281   C     0.87793   0.80401   0.23214   0.00000  Uiso   1.00
C282   C     0.74996   0.82747   0.28774   0.00000  Uiso   1.00
C283   C     0.81805   0.80401   0.31547   0.00000  Uiso   1.00
C284   C     0.92256   0.82747   0.20441   0.00000  Uiso   1.00
C285   C     0.94595   0.87213   0.23214   0.00000  Uiso   1.00
C286   C     0.87793   0.80401   0.28780   0.00000  Uiso   1.00
C287   C     0.92256   0.82747   0.31553   0.00000  Uiso   1.00
C288   C     0.94595   0.87213   0.28780   0.00000  Uiso   1.00
C289   C     0.44594   0.93198   0.37114   0.00000  Uiso   1.00
C290   C     0.42253   0.00000   0.39887   0.00000  Uiso   1.00
C291   C     0.44594   0.93198   0.48214   0.00000  Uiso   1.00
C292   C     0.37792   0.06802   0.37114   0.00000  Uiso   1.00
C293   C     0.31809   0.12787   0.39881   0.00000  Uiso   1.00
C294   C     0.42253   1.00000   0.45441   0.00000  Uiso   1.00
C295   C     0.37792   0.06802   0.48214   0.00000  Uiso   1.00
C296   C     0.25003   0.17253   0.37108   0.00000  Uiso   1.00
C297   C     0.18195   0.19599   0.39881   0.00000  Uiso   1.00
C298   C     0.31809   0.12787   0.45447   0.00000  Uiso   1.00
C299   C     0.25003   0.17253   0.48220   0.00000  Uiso   1.00
C300   C     0.12206   0.19599   0.37114   0.00000  Uiso   1.00
C301   C     0.07744   0.17253   0.39887   0.00000  Uiso   1.00
C302   C     0.18195   0.19599   0.45447   0.00000  Uiso   1.00
C303   C     0.12206   0.19599   0.48214   0.00000  Uiso   1.00
C304   C     0.05404   0.12787   0.37114   0.00000  Uiso   1.00
C305   C     0.05406   0.06802   0.39881   0.00000  Uiso   1.00
C306   C     0.07744   0.17253   0.45441   0.00000  Uiso   1.00
C307   C     0.05404   0.12787   0.48214   0.00000  Uiso   1.00
C308   C     0.07747   1.00000   0.37108   0.00000  Uiso   1.00
C309   C     0.12208   0.93198   0.39881   0.00000  Uiso   1.00
C310   C     0.05406   0.06802   0.45447   0.00000  Uiso   1.00
C311   C     0.07747   0.00000   0.48220   0.00000  Uiso   1.00
C312   C     0.18191   0.87213   0.37114   0.00000  Uiso   1.00
C313   C     0.24997   0.82747   0.39887   0.00000  Uiso   1.00
C314   C     0.12208   0.93198   0.45447   0.00000  Uiso   1.00
C315   C     0.18191   0.87213   0.48214   0.00000  Uiso   1.00
C316   C     0.31805   0.80401   0.37114   0.00000  Uiso   1.00
C317   C     0.37794   0.80401   0.39881   0.00000  Uiso   1.00
C318   C     0.24996   0.82747   0.45441   0.00000  Uiso   1.00
C319   C     0.31805   0.80401   0.48214   0.00000  Uiso   1.00
C320   C     0.42256   0.82747   0.37108   0.00000  Uiso   1.00
C321   C     0.44595   0.87213   0.39881   0.00000  Uiso   1.00
C322   C     0.37793   0.80401   0.45447   0.00000  Uiso   1.00
C323   C     0.42256   0.82747   0.48220   0.00000  Uiso   1.00
C324   C     0.44595   0.87213   0.45447   0.00000  Uiso   1.00
C325   C     0.94594   0.43198   0.37114   0.00000  Uiso   1.00
C326   C     0.92252   0.50000   0.39887   0.00000  Uiso   1.00
C327   C     0.94594   0.43198   0.48214   0.00000  Uiso   1.00
C328   C     0.87791   0.56802   0.37114   0.00000  Uiso   1.00
C329   C     0.81809   0.62787   0.39881   0.00000  Uiso   1.00
C330   C     0.92252   0.50000   0.45441   0.00000  Uiso   1.00
C331   C     0.87791   0.56802   0.48214   0.00000  Uiso   1.00
C332   C     0.75003   0.67253   0.37108   0.00000  Uiso   1.00
C333   C     0.68195   0.69599   0.39881   0.00000  Uiso   1.00
C334   C     0.81809   0.62787   0.45447   0.00000  Uiso   1.00
C335   C     0.75003   0.67253   0.48220   0.00000  Uiso   1.00
C336   C     0.62206   0.69599   0.37114   0.00000  Uiso   1.00
C337   C     0.57744   0.67253   0.39887   0.00000  Uiso   1.00
C338   C     0.68195   0.69599   0.45447   0.00000  Uiso   1.00
C339   C     0.62206   0.69599   0.48214   0.00000  Uiso   1.00
C340   C     0.55404   0.62787   0.37114   0.00000  Uiso   1.00
C341   C     0.55406   0.56802   0.39881   0.00000  Uiso   1.00
C342   C     0.57744   0.67253   0.45441   0.00000  Uiso   1.00
C343   C     0.55404   0.62787   0.48214   0.00000  Uiso   1.00
C344   C     0.57747   0.50000   0.37108   0.00000  Uiso   1.00
C345   C     0.62208   0.43198   0.39881   0.00000  Uiso   1.00
C346   C     0.55406   0.56802   0.45447   0.00000  Uiso   1.00
C347   C     0.57747   0.50000   0.48220   0.00000  Uiso   1.00
C348   C     0.68191   0.37213   0.37114   0.00000  Uiso   1.00
C349   C     0.74996   0.32747   0.39887   0.00000  Uiso   1.00
C350   C     0.62208   0.43198   0.45447   0.00000  Uiso   1.00
C351   C     0.68191   0.37213   0.48214   0.00000  Uiso   1.00
C352   C     0.81805   0.30401   0.37114   0.00000  Uiso   1.00
C353   C     0.87793   0.30401   0.39881   0.00000  Uiso   1.00
C354   C     0.74996   0.32747   0.45441   0.00000  Uiso   1.00
C355   C     0.81805   0.30401   0.48214   0.00000  Uiso   1.00
C356   C     0.92256   0.32747   0.37108   0.00000  Uiso   1.00
C357   C     0.94595   0.37213   0.39881   0.00000  Uiso   1.00
C358   C     0.87793   0.30401   0.45447   0.00000  Uiso   1.00
C359   C     0.92256   0.32747   0.48220   0.00000  Uiso   1.00
C360   C     0.94595   0.37213   0.45447   0.00000  Uiso   1.00
C361   C     0.44594   0.43198   0.37114   0.00000  Uiso   1.00
C362   C     0.42253   0.50000   0.39887   0.00000  Uiso   1.00
C363   C     0.44594   0.43198   0.48214   0.00000  Uiso   1.00
C364   C     0.37792   0.56802   0.37114   0.00000  Uiso   1.00
C365   C     0.31809   0.62787   0.39881   0.00000  Uiso   1.00
C366   C     0.42253   0.50000   0.45441   0.00000  Uiso   1.00
C367   C     0.37792   0.56802   0.48214   0.00000  Uiso   1.00
C368   C     0.25003   0.67253   0.37108   0.00000  Uiso   1.00
C369   C     0.18195   0.69599   0.39881   0.00000  Uiso   1.00
C370   C     0.31809   0.62787   0.45447   0.00000  Uiso   1.00
C371   C     0.25003   0.67253   0.48220   0.00000  Uiso   1.00
C372   C     0.12206   0.69599   0.37114   0.00000  Uiso   1.00
C373   C     0.07744   0.67253   0.39887   0.00000  Uiso   1.00
C374   C     0.18195   0.69599   0.45447   0.00000  Uiso   1.00
C375   C     0.12206   0.69599   0.48214   0.00000  Uiso   1.00
C376   C     0.05404   0.62787   0.37114   0.00000  Uiso   1.00
C377   C     0.05406   0.56802   0.39881   0.00000  Uiso   1.00
C378   C     0.07744   0.67253   0.45441   0.00000  Uiso   1.00
C379   C     0.05404   0.62787   0.48214   0.00000  Uiso   1.00
C380   C     0.07747   0.50000   0.37107   0.00000  Uiso   1.00
C381   C     0.12208   0.43198   0.39881   0.00000  Uiso   1.00
C382   C     0.05406   0.56802   0.45447   0.00000  Uiso   1.00
C383   C     0.07747   0.50000   0.48220   0.00000  Uiso   1.00
C384   C     0.18191   0.37213   0.37114   0.00000  Uiso   1.00
C385   C     0.24997   0.32747   0.39887   0.00000  Uiso   1.00
C386   C     0.12208   0.43198   0.45447   0.00000  Uiso   1.00
C387   C     0.18191   0.37213   0.48214   0.00000  Uiso   1.00
C388   C     0.31805   0.30401   0.37114   0.00000  Uiso   1.00
C389   C     0.37794   0.30401   0.39881   0.00000  Uiso   1.00
C390   C     0.24996   0.32747   0.45441   0.00000  Uiso   1.00
C391   C     0.31805   0.30401   0.48214   0.00000  Uiso   1.00
C392   C     0.42256   0.32747   0.37108   0.00000  Uiso   1.00
C393   C     0.44595   0.37213   0.39881   0.00000  Uiso   1.00
C394   C     0.37794   0.30401   0.45447   0.00000  Uiso   1.00
C395   C     0.42256   0.32747   0.48220   0.00000  Uiso   1.00
C396   C     0.44595   0.37213   0.45447   0.00000  Uiso   1.00
C397   C     0.94594   0.93198   0.37114   0.00000  Uiso   1.00
C398   C     0.92252   1.00000   0.39887   0.00000  Uiso   1.00
C399   C     0.94594   0.93198   0.48214   0.00000  Uiso   1.00
C400   C     0.87791   0.06802   0.37114   0.00000  Uiso   1.00
C401   C     0.81809   0.12787   0.39881   0.00000  Uiso   1.00
C402   C     0.92252   0.00000   0.45441   0.00000  Uiso   1.00
C403   C     0.87791   0.06802   0.48214   0.00000  Uiso   1.00
C404   C     0.75003   0.17253   0.37108   0.00000  Uiso   1.00
C405   C     0.68195   0.19599   0.39881   0.00000  Uiso   1.00
C406   C     0.81809   0.12787   0.45447   0.00000  Uiso   1.00
C407   C     0.75003   0.17253   0.48220   0.00000  Uiso   1.00
C408   C     0.62206   0.19599   0.37114   0.00000  Uiso   1.00
C409   C     0.57744   0.17253   0.39887   0.00000  Uiso   1.00
C410   C     0.68195   0.19599   0.45447   0.00000  Uiso   1.00
C411   C     0.62206   0.19599   0.48214   0.00000  Uiso   1.00
C412   C     0.55404   0.12787   0.37114   0.00000  Uiso   1.00
C413   C     0.55406   0.06802   0.39881   0.00000  Uiso   1.00
C414   C     0.57744   0.17253   0.45441   0.00000  Uiso   1.00
C415   C     0.55404   0.12787   0.48214   0.00000  Uiso   1.00
C416   C     0.57747   1.00000   0.37107   0.00000  Uiso   1.00
C417   C     0.62208   0.93198   0.39881   0.00000  Uiso   1.00
C418   C     0.55406   0.06802   0.45447   0.00000  Uiso   1.00
C419   C     0.57747   1.00000   0.48220   0.00000  Uiso   1.00
C420   C     0.68191   0.87213   0.37114   0.00000  Uiso   1.00
C421   C     0.74996   0.82747   0.39887   0.00000  Uiso   1.00
C422   C     0.62208   0.93198   0.45447   0.00000  Uiso   1.00
C423   C     0.68191   0.87213   0.48214   0.00000  Uiso   1.00
C424   C     0.81805   0.80401   0.37114   0.00000  Uiso   1.00
C425   C     0.87793   0.80401   0.39881   0.00000  Uiso   1.00
C426   C     0.74996   0.82747   0.45441   0.00000  Uiso   1.00
C427   C     0.81805   0.80401   0.48214   0.00000  Uiso   1.00
C428   C     0.92256   0.82747   0.37108   0.00000  Uiso   1.00
C429   C     0.94595   0.87213   0.39881   0.00000  Uiso   1.00
C430   C     0.87793   0.80401   0.45447   0.00000  Uiso   1.00
C431   C     0.92256   0.82747   0.48220   0.00000  Uiso   1.00
C432   C     0.94595   0.87213   0.45447   0.00000  Uiso   1.00
C433   C     0.44594   0.93198   0.53780   0.00000  Uiso   1.00
C434   C     0.42253   0.00000   0.56553   0.00000  Uiso   1.00
C435   C     0.44594   0.93198   0.64881   0.00000  Uiso   1.00
C436   C     0.37791   0.06802   0.53780   0.00000  Uiso   1.00
C437   C     0.31809   0.12787   0.56547   0.00000  Uiso   1.00
C438   C     0.42253   1.00000   0.62108   0.00000  Uiso   1.00
C439   C     0.37792   0.06802   0.64881   0.00000  Uiso   1.00
C440   C     0.25003   0.17253   0.53774   0.00000  Uiso   1.00
C441   C     0.18195   0.19599   0.56547   0.00000  Uiso   1.00
C442   C     0.31809   0.12787   0.62114   0.00000  Uiso   1.00
C443   C     0.25003   0.17253   0.64887   0.00000  Uiso   1.00
C444   C     0.12206   0.19599   0.53780   0.00000  Uiso   1.00
C445   C     0.07744   0.17253   0.56554   0.00000  Uiso   1.00
C446   C     0.18195   0.19599   0.62114   0.00000  Uiso   1.00
C447   C     0.12206   0.19599   0.64881   0.00000  Uiso   1.00
C448   C     0.05404   0.12787   0.53780   0.00000  Uiso   1.00
C449   C     0.05406   0.06802   0.56547   0.00000  Uiso   1.00
C450   C     0.07744   0.17253   0.62108   0.00000  Uiso   1.00
C451   C     0.05404   0.12787   0.64881   0.00000  Uiso   1.00
C452   C     0.07747   0.00000   0.53774   0.00000  Uiso   1.00
C453   C     0.12208   0.93198   0.56547   0.00000  Uiso   1.00
C454   C     0.05406   0.06802   0.62114   0.00000  Uiso   1.00
C455   C     0.07747   1.00000   0.64887   0.00000  Uiso   1.00
C456   C     0.18191   0.87213   0.53780   0.00000  Uiso   1.00
C457   C     0.24996   0.82747   0.56554   0.00000  Uiso   1.00
C458   C     0.12208   0.93198   0.62114   0.00000  Uiso   1.00
C459   C     0.18191   0.87213   0.64880   0.00000  Uiso   1.00
C460   C     0.31805   0.80401   0.53780   0.00000  Uiso   1.00
C461   C     0.37794   0.80401   0.56547   0.00000  Uiso   1.00
C462   C     0.24997   0.82747   0.62108   0.00000  Uiso   1.00
C463   C     0.31805   0.80401   0.64881   0.00000  Uiso   1.00
C464   C     0.42256   0.82747   0.53774   0.00000  Uiso   1.00
C465   C     0.44595   0.87213   0.56547   0.00000  Uiso   1.00
C466   C     0.37794   0.80401   0.62114   0.00000  Uiso   1.00
C467   C     0.42256   0.82747   0.64887   0.00000  Uiso   1.00
C468   C     0.44595   0.87213   0.62114   0.00000  Uiso   1.00
C469   C     0.94594   0.43198   0.53780   0.00000  Uiso   1.00
C470   C     0.92252   0.50000   0.56553   0.00000  Uiso   1.00
C471   C     0.94594   0.43198   0.64881   0.00000  Uiso   1.00
C472   C     0.87791   0.56802   0.53780   0.00000  Uiso   1.00
C473   C     0.81809   0.62787   0.56547   0.00000  Uiso   1.00
C474   C     0.92252   0.50000   0.62108   0.00000  Uiso   1.00
C475   C     0.87791   0.56802   0.64881   0.00000  Uiso   1.00
C476   C     0.75003   0.67253   0.53774   0.00000  Uiso   1.00
C477   C     0.68195   0.69599   0.56547   0.00000  Uiso   1.00
C478   C     0.81809   0.62787   0.62114   0.00000  Uiso   1.00
C479   C     0.75003   0.67253   0.64887   0.00000  Uiso   1.00
C480   C     0.62206   0.69599   0.53780   0.00000  Uiso   1.00
C481   C     0.57744   0.67253   0.56553   0.00000  Uiso   1.00
C482   C     0.68195   0.69599   0.62114   0.00000  Uiso   1.00
C483   C     0.62206   0.69599   0.64881   0.00000  Uiso   1.00
C484   C     0.55404   0.62787   0.53781   0.00000  Uiso   1.00
C485   C     0.55406   0.56802   0.56547   0.00000  Uiso   1.00
C486   C     0.57744   0.67253   0.62108   0.00000  Uiso   1.00
C487   C     0.55404   0.62787   0.64881   0.00000  Uiso   1.00
C488   C     0.57747   0.50000   0.53774   0.00000  Uiso   1.00
C489   C     0.62208   0.43198   0.56547   0.00000  Uiso   1.00
C490   C     0.55406   0.56802   0.62114   0.00000  Uiso   1.00
C491   C     0.57747   0.50000   0.64887   0.00000  Uiso   1.00
C492   C     0.68191   0.37213   0.53781   0.00000  Uiso   1.00
C493   C     0.74996   0.32747   0.56553   0.00000  Uiso   1.00
C494   C     0.62208   0.43198   0.62114   0.00000  Uiso   1.00
C495   C     0.68191   0.37213   0.64881   0.00000  Uiso   1.00
C496   C     0.81805   0.30401   0.53780   0.00000  Uiso   1.00
C497   C     0.87793   0.30401   0.56547   0.00000  Uiso   1.00
C498   C     0.74996   0.32747   0.62108   0.00000  Uiso   1.00
C499   C     0.81805   0.30401   0.64881   0.00000  Uiso   1.00
C500   C     0.92256   0.32747   0.53774   0.00000  Uiso   1.00
C501   C     0.94595   0.37213   0.56547   0.00000  Uiso   1.00
C502   C     0.87793   0.30401   0.62114   0.00000  Uiso   1.00
C503   C     0.92256   0.32747   0.64887   0.00000  Uiso   1.00
C504   C     0.94595   0.37213   0.62114   0.00000  Uiso   1.00
C505   C     0.44594   0.43198   0.53780   0.00000  Uiso   1.00
C506   C     0.42253   0.50000   0.56553   0.00000  Uiso   1.00
C507   C     0.44594   0.43198   0.64881   0.00000  Uiso   1.00
C508   C     0.37792   0.56802   0.53780   0.00000  Uiso   1.00
C509   C     0.31809   0.62787   0.56547   0.00000  Uiso   1.00
C510   C     0.42252   0.50000   0.62108   0.00000  Uiso   1.00
C511   C     0.37792   0.56802   0.64881   0.00000  Uiso   1.00
C512   C     0.25003   0.67253   0.53774   0.00000  Uiso   1.00
C513   C     0.18195   0.69599   0.56547   0.00000  Uiso   1.00
C514   C     0.31809   0.62787   0.62114   0.00000  Uiso   1.00
C515   C     0.25003   0.67253   0.64887   0.00000  Uiso   1.00
C516   C     0.12206   0.69599   0.53780   0.00000  Uiso   1.00
C517   C     0.07744   0.67253   0.56553   0.00000  Uiso   1.00
C518   C     0.18195   0.69599   0.62114   0.00000  Uiso   1.00
C519   C     0.12206   0.69599   0.64881   0.00000  Uiso   1.00
C520   C     0.05404   0.62787   0.53780   0.00000  Uiso   1.00
C521   C     0.05406   0.56802   0.56547   0.00000  Uiso   1.00
C522   C     0.07744   0.67253   0.62108   0.00000  Uiso   1.00
C523   C     0.05404   0.62787   0.64881   0.00000  Uiso   1.00
C524   C     0.07747   0.50000   0.53774   0.00000  Uiso   1.00
C525   C     0.12208   0.43198   0.56547   0.00000  Uiso   1.00
C526   C     0.05406   0.56802   0.62114   0.00000  Uiso   1.00
C527   C     0.07747   0.50000   0.64887   0.00000  Uiso   1.00
C528   C     0.18191   0.37213   0.53780   0.00000  Uiso   1.00
C529   C     0.24997   0.32747   0.56553   0.00000  Uiso   1.00
C530   C     0.12208   0.43198   0.62114   0.00000  Uiso   1.00
C531   C     0.18191   0.37213   0.64881   0.00000  Uiso   1.00
C532   C     0.31805   0.30401   0.53780   0.00000  Uiso   1.00
C533   C     0.37794   0.30401   0.56547   0.00000  Uiso   1.00
C534   C     0.24997   0.32747   0.62108   0.00000  Uiso   1.00
C535   C     0.31805   0.30401   0.64881   0.00000  Uiso   1.00
C536   C     0.42256   0.32747   0.53774   0.00000  Uiso   1.00
C537   C     0.44595   0.37213   0.56547   0.00000  Uiso   1.00
C538   C     0.37794   0.30401   0.62114   0.00000  Uiso   1.00
C539   C     0.42256   0.32747   0.64887   0.00000  Uiso   1.00
C540   C     0.44595   0.37213   0.62114   0.00000  Uiso   1.00
C541   C     0.94594   0.93198   0.53780   0.00000  Uiso   1.00
C542   C     0.92252   0.00000   0.56553   0.00000  Uiso   1.00
C543   C     0.94594   0.93198   0.64881   0.00000  Uiso   1.00
C544   C     0.87791   0.06802   0.53780   0.00000  Uiso   1.00
C545   C     0.81809   0.12787   0.56547   0.00000  Uiso   1.00
C546   C     0.92252   1.00000   0.62108   0.00000  Uiso   1.00
C547   C     0.87792   0.06802   0.64881   0.00000  Uiso   1.00
C548   C     0.75003   0.17253   0.53774   0.00000  Uiso   1.00
C549   C     0.68195   0.19599   0.56547   0.00000  Uiso   1.00
C550   C     0.81809   0.12787   0.62114   0.00000  Uiso   1.00
C551   C     0.75003   0.17253   0.64887   0.00000  Uiso   1.00
C552   C     0.62206   0.19599   0.53780   0.00000  Uiso   1.00
C553   C     0.57744   0.17253   0.56554   0.00000  Uiso   1.00
C554   C     0.68195   0.19599   0.62114   0.00000  Uiso   1.00
C555   C     0.62206   0.19599   0.64881   0.00000  Uiso   1.00
C556   C     0.55404   0.12787   0.53780   0.00000  Uiso   1.00
C557   C     0.55406   0.06802   0.56547   0.00000  Uiso   1.00
C558   C     0.57744   0.17253   0.62108   0.00000  Uiso   1.00
C559   C     0.55404   0.12787   0.64881   0.00000  Uiso   1.00
C560   C     0.57747   1.00000   0.53774   0.00000  Uiso   1.00
C561   C     0.62208   0.93198   0.56547   0.00000  Uiso   1.00
C562   C     0.55406   0.06802   0.62114   0.00000  Uiso   1.00
C563   C     0.57747   0.00000   0.64887   0.00000  Uiso   1.00
C564   C     0.68191   0.87213   0.53781   0.00000  Uiso   1.00
C565   C     0.74996   0.82747   0.56553   0.00000  Uiso   1.00
C566   C     0.62208   0.93198   0.62114   0.00000  Uiso   1.00
C567   C     0.68191   0.87213   0.64881   0.00000  Uiso   1.00
C568   C     0.81805   0.80401   0.53780   0.00000  Uiso   1.00
C569   C     0.87793   0.80401   0.56547   0.00000  Uiso   1.00
C570   C     0.74996   0.82747   0.62108   0.00000  Uiso   1.00
C571   C     0.81805   0.80401   0.64881   0.00000  Uiso   1.00
C572   C     0.92256   0.82747   0.53774   0.00000  Uiso   1.00
C573   C     0.94595   0.87213   0.56547   0.00000  Uiso   1.00
C574   C     0.87794   0.80401   0.62114   0.00000  Uiso   1.00
C575   C     0.92256   0.82747   0.64887   0.00000  Uiso   1.00
C576   C     0.94595   0.87213   0.62114   0.00000  Uiso   1.00
C577   C     0.44594   0.93198   0.70447   0.00000  Uiso   1.00
C578   C     0.42253   1.00000   0.73220   0.00000  Uiso   1.00
C579   C     0.44594   0.93198   0.81547   0.00000  Uiso   1.00
C580   C     0.37792   0.06802   0.70447   0.00000  Uiso   1.00
C581   C     0.31809   0.12787   0.73214   0.00000  Uiso   1.00
C582   C     0.42253   0.00000   0.78774   0.00000  Uiso   1.00
C583   C     0.37792   0.06802   0.81547   0.00000  Uiso   1.00
C584   C     0.25003   0.17253   0.70441   0.00000  Uiso   1.00
C585   C     0.18195   0.19599   0.73214   0.00000  Uiso   1.00
C586   C     0.31809   0.12787   0.78780   0.00000  Uiso   1.00
C587   C     0.25003   0.17253   0.81554   0.00000  Uiso   1.00
C588   C     0.12206   0.19599   0.70447   0.00000  Uiso   1.00
C589   C     0.07744   0.17253   0.73220   0.00000  Uiso   1.00
C590   C     0.18195   0.19599   0.78780   0.00000  Uiso   1.00
C591   C     0.12206   0.19599   0.81547   0.00000  Uiso   1.00
C592   C     0.05404   0.12787   0.70447   0.00000  Uiso   1.00
C593   C     0.05406   0.06802   0.73214   0.00000  Uiso   1.00
C594   C     0.07744   0.17253   0.78774   0.00000  Uiso   1.00
C595   C     0.05404   0.12787   0.81547   0.00000  Uiso   1.00
C596   C     0.07747   1.00000   0.70441   0.00000  Uiso   1.00
C597   C     0.12208   0.93198   0.73214   0.00000  Uiso   1.00
C598   C     0.05406   0.06802   0.78780   0.00000  Uiso   1.00
C599   C     0.07747   0.00000   0.81554   0.00000  Uiso   1.00
C600   C     0.18191   0.87213   0.70447   0.00000  Uiso   1.00
C601   C     0.24996   0.82747   0.73220   0.00000  Uiso   1.00
C602   C     0.12208   0.93198   0.78780   0.00000  Uiso   1.00
C603   C     0.18191   0.87213   0.81547   0.00000  Uiso   1.00
C604   C     0.31805   0.80401   0.70447   0.00000  Uiso   1.00
C605   C     0.37794   0.80401   0.73214   0.00000  Uiso   1.00
C606   C     0.24996   0.82747   0.78774   0.00000  Uiso   1.00
C607   C     0.31805   0.80401   0.81547   0.00000  Uiso   1.00
C608   C     0.42256   0.82747   0.70441   0.00000  Uiso   1.00
C609   C     0.44595   0.87213   0.73214   0.00000  Uiso   1.00
C610   C     0.37793   0.80401   0.78780   0.00000  Uiso   1.00
C611   C     0.42256   0.82747   0.81553   0.00000  Uiso   1.00
C612   C     0.44595   0.87213   0.78780   0.00000  Uiso   1.00
C613   C     0.94594   0.43198   0.70447   0.00000  Uiso   1.00
C614   C     0.92252   0.50000   0.73220   0.00000  Uiso   1.00
C615   C     0.94594   0.43198   0.81547   0.00000  Uiso   1.00
C616   C     0.87792   0.56802   0.70447   0.00000  Uiso   1.00
C617   C     0.81809   0.62787   0.73214   0.00000  Uiso   1.00
C618   C     0.92252   0.50000   0.78774   0.00000  Uiso   1.00
C619   C     0.87791   0.56802   0.81547   0.00000  Uiso   1.00
C620   C     0.75003   0.67253   0.70441   0.00000  Uiso   1.00
C621   C     0.68195   0.69599   0.73214   0.00000  Uiso   1.00
C622   C     0.81809   0.62787   0.78780   0.00000  Uiso   1.00
C623   C     0.75003   0.67253   0.81553   0.00000  Uiso   1.00
C624   C     0.62206   0.69599   0.70447   0.00000  Uiso   1.00
C625   C     0.57744   0.67253   0.73220   0.00000  Uiso   1.00
C626   C     0.68195   0.69599   0.78780   0.00000  Uiso   1.00
C627   C     0.62206   0.69599   0.81547   0.00000  Uiso   1.00
C628   C     0.55404   0.62787   0.70447   0.00000  Uiso   1.00
C629   C     0.55406   0.56802   0.73214   0.00000  Uiso   1.00
C630   C     0.57744   0.67253   0.78774   0.00000  Uiso   1.00
C631   C     0.55404   0.62787   0.81547   0.00000  Uiso   1.00
C632   C     0.57747   0.50000   0.70441   0.00000  Uiso   1.00
C633   C     0.62208   0.43198   0.73214   0.00000  Uiso   1.00
C634   C     0.55406   0.56802   0.78780   0.00000  Uiso   1.00
C635   C     0.57747   0.50000   0.81553   0.00000  Uiso   1.00
C636   C     0.68191   0.37213   0.70447   0.00000  Uiso   1.00
C637   C     0.74996   0.32747   0.73220   0.00000  Uiso   1.00
C638   C     0.62208   0.43198   0.78780   0.00000  Uiso   1.00
C639   C     0.68191   0.37213   0.81547   0.00000  Uiso   1.00
C640   C     0.81805   0.30401   0.70447   0.00000  Uiso   1.00
C641   C     0.87793   0.30401   0.73214   0.00000  Uiso   1.00
C642   C     0.74996   0.32747   0.78774   0.00000  Uiso   1.00
C643   C     0.81805   0.30401   0.81547   0.00000  Uiso   1.00
C644   C     0.92256   0.32747   0.70441   0.00000  Uiso   1.00
C645   C     0.94595   0.37213   0.73214   0.00000  Uiso   1.00
C646   C     0.87793   0.30401   0.78780   0.00000  Uiso   1.00
C647   C     0.92256   0.32747   0.81553   0.00000  Uiso   1.00
C648   C     0.94595   0.37213   0.78780   0.00000  Uiso   1.00
C649   C     0.44594   0.43198   0.70447   0.00000  Uiso   1.00
C650   C     0.42253   0.50000   0.73220   0.00000  Uiso   1.00
C651   C     0.44594   0.43198   0.81547   0.00000  Uiso   1.00
C652   C     0.37792   0.56802   0.70447   0.00000  Uiso   1.00
C653   C     0.31809   0.62787   0.73214   0.00000  Uiso   1.00
C654   C     0.42253   0.50000   0.78774   0.00000  Uiso   1.00
C655   C     0.37792   0.56802   0.81547   0.00000  Uiso   1.00
C656   C     0.25003   0.67253   0.70441   0.00000  Uiso   1.00
C657   C     0.18195   0.69599   0.73214   0.00000  Uiso   1.00
C658   C     0.31809   0.62787   0.78780   0.00000  Uiso   1.00
C659   C     0.25003   0.67253   0.81553   0.00000  Uiso   1.00
C660   C     0.12206   0.69599   0.70447   0.00000  Uiso   1.00
C661   C     0.07744   0.67253   0.73220   0.00000  Uiso   1.00
C662   C     0.18195   0.69599   0.78780   0.00000  Uiso   1.00
C663   C     0.12206   0.69599   0.81547   0.00000  Uiso   1.00
C664   C     0.05404   0.62787   0.70447   0.00000  Uiso   1.00
C665   C     0.05406   0.56802   0.73214   0.00000  Uiso   1.00
C666   C     0.07744   0.67253   0.78774   0.00000  Uiso   1.00
C667   C     0.05404   0.62787   0.81547   0.00000  Uiso   1.00
C668   C     0.07747   0.50000   0.70441   0.00000  Uiso   1.00
C669   C     0.12208   0.43198   0.73214   0.00000  Uiso   1.00
C670   C     0.05406   0.56802   0.78780   0.00000  Uiso   1.00
C671   C     0.07747   0.50000   0.81553   0.00000  Uiso   1.00
C672   C     0.18191   0.37213   0.70447   0.00000  Uiso   1.00
C673   C     0.24996   0.32747   0.73220   0.00000  Uiso   1.00
C674   C     0.12208   0.43198   0.78780   0.00000  Uiso   1.00
C675   C     0.18191   0.37213   0.81547   0.00000  Uiso   1.00
C676   C     0.31805   0.30401   0.70447   0.00000  Uiso   1.00
C677   C     0.37794   0.30401   0.73214   0.00000  Uiso   1.00
C678   C     0.24996   0.32747   0.78774   0.00000  Uiso   1.00
C679   C     0.31805   0.30401   0.81547   0.00000  Uiso   1.00
C680   C     0.42256   0.32747   0.70441   0.00000  Uiso   1.00
C681   C     0.44595   0.37213   0.73214   0.00000  Uiso   1.00
C682   C     0.37794   0.30401   0.78780   0.00000  Uiso   1.00
C683   C     0.42256   0.32747   0.81553   0.00000  Uiso   1.00
C684   C     0.44595   0.37213   0.78780   0.00000  Uiso   1.00
C685   C     0.94594   0.93198   0.70447   0.00000  Uiso   1.00
C686   C     0.92252   0.00000   0.73220   0.00000  Uiso   1.00
C687   C     0.94594   0.93198   0.81547   0.00000  Uiso   1.00
C688   C     0.87791   0.06802   0.70447   0.00000  Uiso   1.00
C689   C     0.81809   0.12787   0.73214   0.00000  Uiso   1.00
C690   C     0.92252   0.00000   0.78774   0.00000  Uiso   1.00
C691   C     0.87792   0.06802   0.81547   0.00000  Uiso   1.00
C692   C     0.75003   0.17253   0.70441   0.00000  Uiso   1.00
C693   C     0.68195   0.19599   0.73214   0.00000  Uiso   1.00
C694   C     0.81809   0.12787   0.78780   0.00000  Uiso   1.00
C695   C     0.75003   0.17253   0.81553   0.00000  Uiso   1.00
C696   C     0.62206   0.19599   0.70447   0.00000  Uiso   1.00
C697   C     0.57744   0.17253   0.73220   0.00000  Uiso   1.00
C698   C     0.68195   0.19599   0.78780   0.00000  Uiso   1.00
C699   C     0.62206   0.19599   0.81547   0.00000  Uiso   1.00
C700   C     0.55404   0.12787   0.70447   0.00000  Uiso   1.00
C701   C     0.55406   0.06802   0.73214   0.00000  Uiso   1.00
C702   C     0.57744   0.17253   0.78774   0.00000  Uiso   1.00
C703   C     0.55404   0.12787   0.81547   0.00000  Uiso   1.00
C704   C     0.57747   0.00000   0.70441   0.00000  Uiso   1.00
C705   C     0.62208   0.93198   0.73214   0.00000  Uiso   1.00
C706   C     0.55406   0.06802   0.78780   0.00000  Uiso   1.00
C707   C     0.57747   1.00000   0.81553   0.00000  Uiso   1.00
C708   C     0.68191   0.87213   0.70447   0.00000  Uiso   1.00
C709   C     0.74996   0.82747   0.73220   0.00000  Uiso   1.00
C710   C     0.62208   0.93198   0.78780   0.00000  Uiso   1.00
C711   C     0.68191   0.87213   0.81547   0.00000  Uiso   1.00
C712   C     0.81805   0.80401   0.70447   0.00000  Uiso   1.00
C713   C     0.87793   0.80401   0.73214   0.00000  Uiso   1.00
C714   C     0.74996   0.82747   0.78774   0.00000  Uiso   1.00
C715   C     0.81805   0.80401   0.81547   0.00000  Uiso   1.00
C716   C     0.92256   0.82747   0.70441   0.00000  Uiso   1.00
C717   C     0.94595   0.87213   0.73214   0.00000  Uiso   1.00
C718   C     0.87793   0.80401   0.78780   0.00000  Uiso   1.00
C719   C     0.92256   0.82747   0.81553   0.00000  Uiso   1.00
C720   C     0.94595   0.87213   0.78780   0.00000  Uiso   1.00
C721   C     0.44594   0.93198   0.87114   0.00000  Uiso   1.00
C722   C     0.42253   0.00000   0.89887   0.00000  Uiso   1.00
C723   C     0.44594   0.93198   0.98214   0.00000  Uiso   1.00
C724   C     0.37792   0.06802   0.87114   0.00000  Uiso   1.00
C725   C     0.31809   0.12787   0.89881   0.00000  Uiso   1.00
C726   C     0.42252   0.00000   0.95441   0.00000  Uiso   1.00
C727   C     0.37792   0.06802   0.98214   0.00000  Uiso   1.00
C728   C     0.25003   0.17253   0.87108   0.00000  Uiso   1.00
C729   C     0.18195   0.19599   0.89881   0.00000  Uiso   1.00
C730   C     0.31809   0.12787   0.95447   0.00000  Uiso   1.00
C731   C     0.25003   0.17253   0.98220   0.00000  Uiso   1.00
C732   C     0.12206   0.19599   0.87114   0.00000  Uiso   1.00
C733   C     0.07744   0.17253   0.89887   0.00000  Uiso   1.00
C734   C     0.18195   0.19599   0.95447   0.00000  Uiso   1.00
C735   C     0.12206   0.19599   0.98214   0.00000  Uiso   1.00
C736   C     0.05404   0.12787   0.87114   0.00000  Uiso   1.00
C737   C     0.05406   0.06802   0.89881   0.00000  Uiso   1.00
C738   C     0.07744   0.17253   0.95441   0.00000  Uiso   1.00
C739   C     0.05404   0.12787   0.98214   0.00000  Uiso   1.00
C740   C     0.07747   1.00000   0.87107   0.00000  Uiso   1.00
C741   C     0.12208   0.93198   0.89881   0.00000  Uiso   1.00
C742   C     0.05406   0.06802   0.95447   0.00000  Uiso   1.00
C743   C     0.07747   0.00000   0.98220   0.00000  Uiso   1.00
C744   C     0.18191   0.87213   0.87114   0.00000  Uiso   1.00
C745   C     0.24997   0.82747   0.89887   0.00000  Uiso   1.00
C746   C     0.12208   0.93198   0.95447   0.00000  Uiso   1.00
C747   C     0.18191   0.87213   0.98214   0.00000  Uiso   1.00
C748   C     0.31805   0.80401   0.87114   0.00000  Uiso   1.00
C749   C     0.37794   0.80401   0.89881   0.00000  Uiso   1.00
C750   C     0.24996   0.82747   0.95441   0.00000  Uiso   1.00
C751   C     0.31805   0.80401   0.98214   0.00000  Uiso   1.00
C752   C     0.42256   0.82747   0.87108   0.00000  Uiso   1.00
C753   C     0.44595   0.87213   0.89881   0.00000  Uiso   1.00
C754   C     0.37793   0.80401   0.95447   0.00000  Uiso   1.00
C755   C     0.42256   0.82747   0.98220   0.00000  Uiso   1.00
C756   C     0.44595   0.87213   0.95447   0.00000  Uiso   1.00
C757   C     0.94594   0.43198   0.87114   0.00000  Uiso   1.00
C758   C     0.92252   0.50000   0.89887   0.00000  Uiso   1.00
C759   C     0.94594   0.43198   0.98214   0.00000  Uiso   1.00
C760   C     0.87791   0.56802   0.87114   0.00000  Uiso   1.00
C761   C     0.81809   0.62787   0.89881   0.00000  Uiso   1.00
C762   C     0.92252   0.50000   0.95441   0.00000  Uiso   1.00
C763   C     0.87791   0.56802   0.98214   0.00000  Uiso   1.00
C764   C     0.75003   0.67253   0.87108   0.00000  Uiso   1.00
C765   C     0.68195   0.69599   0.89881   0.00000  Uiso   1.00
C766   C     0.81809   0.62787   0.95447   0.00000  Uiso   1.00
C767   C     0.75003   0.67253   0.98220   0.00000  Uiso   1.00
C768   C     0.62206   0.69599   0.87114   0.00000  Uiso   1.00
C769   C     0.57744   0.67253   0.89887   0.00000  Uiso   1.00
C770   C     0.68195   0.69599   0.95447   0.00000  Uiso   1.00
C771   C     0.62206   0.69599   0.98214   0.00000  Uiso   1.00
C772   C     0.55404   0.62787   0.87114   0.00000  Uiso   1.00
C773   C     0.55406   0.56802   0.89881   0.00000  Uiso   1.00
C774   C     0.57744   0.67253   0.95441   0.00000  Uiso   1.00
C775   C     0.55404   0.62787   0.98214   0.00000  Uiso   1.00
C776   C     0.57747   0.50000   0.87108   0.00000  Uiso   1.00
C777   C     0.62208   0.43198   0.89881   0.00000  Uiso   1.00
C778   C     0.55406   0.56802   0.95447   0.00000  Uiso   1.00
C779   C     0.57747   0.50000   0.98220   0.00000  Uiso   1.00
C780   C     0.68191   0.37213   0.87114   0.00000  Uiso   1.00
C781   C     0.74997   0.32747   0.89887   0.00000  Uiso   1.00
C782   C     0.62208   0.43198   0.95447   0.00000  Uiso   1.00
C783   C     0.68191   0.37213   0.98214   0.00000  Uiso   1.00
C784   C     0.81805   0.30401   0.87114   0.00000  Uiso   1.00
C785   C     0.87793   0.30401   0.89881   0.00000  Uiso   1.00
C786   C     0.74996   0.32747   0.95441   0.00000  Uiso   1.00
C787   C     0.81805   0.30401   0.98214   0.00000  Uiso   1.00
C788   C     0.92256   0.32747   0.87108   0.00000  Uiso   1.00
C789   C     0.94595   0.37213   0.89881   0.00000  Uiso   1.00
C790   C     0.87793   0.30401   0.95447   0.00000  Uiso   1.00
C791   C     0.92256   0.32747   0.98220   0.00000  Uiso   1.00
C792   C     0.94595   0.37213   0.95447   0.00000  Uiso   1.00
C793   C     0.44594   0.43198   0.87114   0.00000  Uiso   1.00
C794   C     0.42252   0.50000   0.89887   0.00000  Uiso   1.00
C795   C     0.44594   0.43198   0.98214   0.00000  Uiso   1.00
C796   C     0.37792   0.56802   0.87114   0.00000  Uiso   1.00
C797   C     0.31809   0.62787   0.89881   0.00000  Uiso   1.00
C798   C     0.42252   0.50000   0.95441   0.00000  Uiso   1.00
C799   C     0.37792   0.56802   0.98214   0.00000  Uiso   1.00
C800   C     0.25003   0.67253   0.87108   0.00000  Uiso   1.00
C801   C     0.18195   0.69599   0.89881   0.00000  Uiso   1.00
C802   C     0.31809   0.62787   0.95447   0.00000  Uiso   1.00
C803   C     0.25003   0.67253   0.98220   0.00000  Uiso   1.00
C804   C     0.12206   0.69599   0.87114   0.00000  Uiso   1.00
C805   C     0.07744   0.67253   0.89887   0.00000  Uiso   1.00
C806   C     0.18195   0.69599   0.95447   0.00000  Uiso   1.00
C807   C     0.12206   0.69599   0.98214   0.00000  Uiso   1.00
C808   C     0.05404   0.62787   0.87114   0.00000  Uiso   1.00
C809   C     0.05406   0.56802   0.89881   0.00000  Uiso   1.00
C810   C     0.07744   0.67253   0.95441   0.00000  Uiso   1.00
C811   C     0.05404   0.62787   0.98214   0.00000  Uiso   1.00
C812   C     0.07747   0.50000   0.87108   0.00000  Uiso   1.00
C813   C     0.12208   0.43198   0.89881   0.00000  Uiso   1.00
C814   C     0.05406   0.56802   0.95447   0.00000  Uiso   1.00
C815   C     0.07747   0.50000   0.98220   0.00000  Uiso   1.00
C816   C     0.18191   0.37213   0.87114   0.00000  Uiso   1.00
C817   C     0.24997   0.32747   0.89887   0.00000  Uiso   1.00
C818   C     0.12208   0.43198   0.95447   0.00000  Uiso   1.00
C819   C     0.18191   0.37213   0.98214   0.00000  Uiso   1.00
C820   C     0.31805   0.30401   0.87114   0.00000  Uiso   1.00
C821   C     0.37793   0.30401   0.89881   0.00000  Uiso   1.00
C822   C     0.24997   0.32747   0.95441   0.00000  Uiso   1.00
C823   C     0.31805   0.30401   0.98214   0.00000  Uiso   1.00
C824   C     0.42256   0.32747   0.87108   0.00000  Uiso   1.00
C825   C     0.44595   0.37213   0.89881   0.00000  Uiso   1.00
C826   C     0.37793   0.30401   0.95447   0.00000  Uiso   1.00
C827   C     0.42256   0.32747   0.98220   0.00000  Uiso   1.00
C828   C     0.44595   0.37213   0.95447   0.00000  Uiso   1.00
C829   C     0.94594   0.93198   0.87114   0.00000  Uiso   1.00
C830   C     0.92252   0.00000   0.89887   0.00000  Uiso   1.00
C831   C     0.94594   0.93198   0.98214   0.00000  Uiso   1.00
C832   C     0.87791   0.06802   0.87114   0.00000  Uiso   1.00
C833   C     0.81809   0.12787   0.89881   0.00000  Uiso   1.00
C834   C     0.92252   0.00000   0.95441   0.00000  Uiso   1.00
C835   C     0.87791   0.06802   0.98214   0.00000  Uiso   1.00
C836   C     0.75003   0.17253   0.87108   0.00000  Uiso   1.00
C837   C     0.68195   0.19599   0.89881   0.00000  Uiso   1.00
C838   C     0.81809   0.12787   0.95447   0.00000  Uiso   1.00
C839   C     0.75003   0.17253   0.98220   0.00000  Uiso   1.00
C840   C     0.62206   0.19599   0.87114   0.00000  Uiso   1.00
C841   C     0.57744   0.17253   0.89887   0.00000  Uiso   1.00
C842   C     0.68195   0.19599   0.95447   0.00000  Uiso   1.00
C843   C     0.62206   0.19599   0.98214   0.00000  Uiso   1.00
C844   C     0.55404   0.12787   0.87114   0.00000  Uiso   1.00
C845   C     0.55406   0.06802   0.89881   0.00000  Uiso   1.00
C846   C     0.57744   0.17253   0.95441   0.00000  Uiso   1.00
C847   C     0.55404   0.12787   0.98214   0.00000  Uiso   1.00
C848   C     0.57747   1.00000   0.87108   0.00000  Uiso   1.00
C849   C     0.62208   0.93198   0.89881   0.00000  Uiso   1.00
C850   C     0.55406   0.06802   0.95447   0.00000  Uiso   1.00
C851   C     0.57747   1.00000   0.98220   0.00000  Uiso   1.00
C852   C     0.68191   0.87213   0.87114   0.00000  Uiso   1.00
C853   C     0.74996   0.82747   0.89887   0.00000  Uiso   1.00
C854   C     0.62208   0.93198   0.95447   0.00000  Uiso   1.00
C855   C     0.68191   0.87213   0.98214   0.00000  Uiso   1.00
C856   C     0.81805   0.80401   0.87114   0.00000  Uiso   1.00
C857   C     0.87793   0.80401   0.89881   0.00000  Uiso   1.00
C858   C     0.74996   0.82747   0.95441   0.00000  Uiso   1.00
C859   C     0.81805   0.80401   0.98214   0.00000  Uiso   1.00
C860   C     0.92256   0.82747   0.87108   0.00000  Uiso   1.00
C861   C     0.94595   0.87213   0.89881   0.00000  Uiso   1.00
C862   C     0.87793   0.80401   0.95447   0.00000  Uiso   1.00
C863   C     0.92256   0.82747   0.98220   0.00000  Uiso   1.00
C864   C     0.94595   0.87213   0.95447   0.00000  Uiso   1.00
loop_
_geom_bond_atom_site_label_1
_geom_bond_atom_site_label_2
_geom_bond_distance
_geom_bond_site_symmetry_2
_ccdc_geom_bond_type
C1     C2      1.431   .     S
C1     C33     1.430   .     D
C1     C723    1.419   1_554 S
C2     C6      1.416   .     S
C2     C4      1.431   1_565 D
C3     C145    1.419   .     S
C3     C6      1.431   .     D
C3     C36     1.430   .     S
C4     C5      1.430   .     S
C4     C2      1.431   1_545 D
C4     C727    1.419   1_554 S
C5     C8      1.431   .     S
C5     C10     1.419   .     D
C6     C7      1.431   1_565 S
C7     C148    1.419   .     D
C7     C10     1.430   .     S
C7     C6      1.431   1_545 S
C8     C9      1.431   .     D
C8     C731    1.416   1_554 S
C9     C12     1.430   .     S
C9     C14     1.419   .     S
C10    C11     1.431   .     S
C11    C152    1.416   .     S
C11    C14     1.431   .     D
C12    C13     1.431   .     S
C12    C735    1.419   1_554 D
C13    C16     1.431   .     D
C13    C18     1.416   .     S
C14    C15     1.430   .     S
C15    C156    1.419   .     S
C15    C18     1.431   .     D
C16    C17     1.430   .     S
C16    C739    1.419   1_554 S
C17    C20     1.431   .     D
C17    C22     1.419   .     S
C18    C19     1.431   .     S
C19    C160    1.419   .     S
C19    C22     1.430   .     D
C20    C21     1.431   1_545 S
C20    C743    1.416   1_554 S
C21    C24     1.430   .     S
C21    C26     1.419   .     D
C21    C20     1.431   1_565 S
C22    C23     1.431   1_545 S
C23    C164    1.416   .     D
C23    C26     1.431   .     S
C23    C22     1.431   1_565 S
C24    C25     1.431   .     S
C24    C747    1.419   1_554 D
C25    C28     1.431   .     S
C25    C30     1.416   .     D
C26    C27     1.430   .     S
C27    C168    1.419   .     D
C27    C30     1.431   .     S
C28    C29     1.430   .     S
C28    C751    1.419   1_554 D
C29    C32     1.431   .     D
C29    C34     1.419   .     S
C30    C31     1.431   .     S
C31    C172    1.419   .     S
C31    C34     1.430   .     D
C32    C33     1.431   .     S
C32    C755    1.416   1_554 S
C33    C36     1.419   .     S
C34    C35     1.431   .     S
C35    C176    1.416   .     S
C35    C36     1.431   .     D
C37    C38     1.431   .     D
C37    C69     1.430   .     S
C37    C759    1.419   1_554 S
C38    C40     1.431   .     S
C38    C42     1.416   .     S
C39    C181    1.419   .     S
C39    C42     1.431   .     D
C39    C72     1.430   .     S
C40    C41     1.430   .     D
C40    C763    1.419   1_554 S
C41    C44     1.431   .     S
C41    C46     1.419   .     S
C42    C43     1.431   .     S
C43    C184    1.419   .     D
C43    C46     1.430   .     S
C44    C45     1.431   .     D
C44    C767    1.416   1_554 S
C45    C48     1.430   .     S
C45    C50     1.419   .     S
C46    C47     1.431   .     D
C47    C188    1.416   .     S
C47    C50     1.431   .     S
C48    C49     1.431   .     S
C48    C771    1.419   1_554 D
C49    C52     1.431   .     S
C49    C54     1.416   .     D
C50    C51     1.430   .     D
C51    C192    1.419   .     S
C51    C54     1.431   .     S
C52    C53     1.430   .     S
C52    C775    1.419   1_554 D
C53    C56     1.431   .     S
C53    C58     1.419   .     D
C54    C55     1.431   .     S
C55    C196    1.419   .     D
C55    C58     1.430   .     S
C56    C57     1.431   .     S
C56    C779    1.416   1_554 D
C57    C60     1.430   .     S
C57    C62     1.419   .     D
C58    C59     1.431   .     S
C59    C200    1.416   .     D
C59    C62     1.431   .     S
C60    C61     1.431   .     S
C60    C783    1.419   1_554 D
C61    C64     1.431   .     D
C61    C66     1.416   .     S
C62    C63     1.430   .     S
C63    C204    1.419   .     S
C63    C66     1.431   .     D
C64    C65     1.430   .     S
C64    C787    1.419   1_554 S
C65    C68     1.431   .     D
C65    C70     1.419   .     S
C66    C67     1.431   .     S
C67    C208    1.419   .     S
C67    C70     1.430   .     D
C68    C69     1.431   .     S
C68    C791    1.416   1_554 S
C69    C72     1.419   .     D
C70    C71     1.431   .     S
C71    C212    1.416   .     D
C71    C72     1.431   .     S
C73    C74     1.431   .     D
C73    C105    1.430   .     S
C73    C795    1.419   1_554 S
C74    C76     1.431   .     S
C74    C78     1.416   .     S
C75    C217    1.419   .     S
C75    C78     1.431   .     D
C75    C108    1.430   .     S
C76    C77     1.430   .     D
C76    C799    1.419   1_554 S
C77    C80     1.431   .     S
C77    C82     1.419   .     S
C78    C79     1.431   .     S
C79    C220    1.419   .     D
C79    C82     1.430   .     S
C80    C81     1.431   .     D
C80    C803    1.416   1_554 S
C81    C84     1.430   .     S
C81    C86     1.419   .     S
C82    C83     1.431   .     D
C83    C224    1.416   .     S
C83    C86     1.431   .     S
C84    C85     1.431   .     S
C84    C807    1.419   1_554 D
C85    C88     1.431   .     S
C85    C90     1.416   .     D
C86    C87     1.430   .     D
C87    C228    1.419   .     S
C87    C90     1.431   .     S
C88    C89     1.430   .     S
C88    C811    1.419   1_554 D
C89    C92     1.431   .     S
C89    C94     1.419   .     D
C90    C91     1.431   .     S
C91    C232    1.419   .     D
C91    C94     1.430   .     S
C92    C93     1.431   .     S
C92    C815    1.416   1_554 D
C93    C96     1.430   .     S
C93    C98     1.419   .     D
C94    C95     1.431   .     S
C95    C236    1.416   .     D
C95    C98     1.431   .     S
C96    C97     1.431   .     S
C96    C819    1.419   1_554 D
C97    C100    1.431   .     D
C97    C102    1.416   .     S
C98    C99     1.430   .     S
C99    C240    1.419   .     S
C99    C102    1.431   .     D
C100   C101    1.430   .     S
C100   C823    1.419   1_554 S
C101   C104    1.431   .     D
C101   C106    1.419   .     S
C102   C103    1.431   .     S
C103   C244    1.419   .     S
C103   C106    1.430   .     D
C104   C105    1.431   .     S
C104   C827    1.416   1_554 S
C105   C108    1.419   .     D
C106   C107    1.431   .     S
C107   C248    1.416   .     D
C107   C108    1.431   .     S
C109   C110    1.431   .     D
C109   C141    1.430   .     S
C109   C831    1.419   1_554 S
C110   C114    1.416   .     S
C110   C112    1.431   1_565 S
C111   C253    1.419   .     S
C111   C114    1.431   .     D
C111   C144    1.430   .     S
C112   C113    1.430   .     D
C112   C110    1.431   1_545 S
C112   C835    1.419   1_554 S
C113   C116    1.431   .     S
C113   C118    1.419   .     S
C114   C115    1.431   1_565 S
C115   C256    1.419   .     D
C115   C118    1.430   .     S
C115   C114    1.431   1_545 S
C116   C117    1.431   .     S
C116   C839    1.416   1_554 D
C117   C120    1.430   .     S
C117   C122    1.419   .     D
C118   C119    1.431   .     D
C119   C260    1.416   .     S
C119   C122    1.431   .     S
C120   C121    1.431   .     S
C120   C843    1.419   1_554 D
C121   C124    1.431   .     D
C121   C126    1.416   .     S
C122   C123    1.430   .     S
C123   C264    1.419   .     S
C123   C126    1.431   .     D
C124   C125    1.430   .     S
C124   C847    1.419   1_554 S
C125   C128    1.431   .     S
C125   C130    1.419   .     D
C126   C127    1.431   .     S
C127   C268    1.419   .     D
C127   C130    1.430   .     S
C128   C129    1.431   1_545 S
C128   C851    1.416   1_544 D
C129   C132    1.430   .     S
C129   C134    1.419   .     D
C129   C128    1.431   1_565 S
C130   C131    1.431   1_545 S
C131   C272    1.416   .     D
C131   C134    1.431   .     S
C131   C130    1.431   1_565 S
C132   C133    1.431   .     S
C132   C855    1.419   1_554 D
C133   C136    1.431   .     S
C133   C138    1.416   .     D
C134   C135    1.430   .     S
C135   C276    1.419   .     D
C135   C138    1.431   .     S
C136   C137    1.430   .     S
C136   C859    1.419   1_554 D
C137   C140    1.431   .     D
C137   C142    1.419   .     S
C138   C139    1.431   .     S
C139   C280    1.419   .     S
C139   C142    1.430   .     D
C140   C141    1.431   .     S
C140   C863    1.416   1_554 S
C141   C144    1.419   .     D
C142   C143    1.431   .     S
C143   C284    1.416   .     D
C143   C144    1.431   .     S
C145   C177    1.430   .     D
C145   C146    1.431   1_565 S
C146   C148    1.431   .     S
C146   C145    1.431   1_545 S
C146   C150    1.416   1_545 D
C147   C150    1.431   .     S
C147   C180    1.430   .     D
C147   C289    1.419   .     S
C148   C149    1.430   .     S
C149   C152    1.431   .     D
C149   C154    1.419   .     S
C150   C146    1.416   1_565 D
C150   C151    1.431   1_565 S
C151   C154    1.430   .     D
C151   C292    1.419   .     S
C151   C150    1.431   1_545 S
C152   C153    1.431   .     S
C153   C156    1.430   .     D
C153   C158    1.419   .     S
C154   C155    1.431   .     S
C155   C158    1.431   .     D
C155   C296    1.416   .     S
C156   C157    1.431   .     S
C157   C160    1.431   .     D
C157   C162    1.416   .     S
C158   C159    1.430   .     S
C159   C162    1.431   .     D
C159   C300    1.419   .     S
C160   C161    1.430   .     S
C161   C166    1.419   .     D
C161   C164    1.431   1_545 S
C162   C163    1.431   .     S
C163   C166    1.430   .     S
C163   C304    1.419   .     D
C164   C165    1.431   .     S
C164   C161    1.431   1_565 S
C165   C168    1.430   .     S
C165   C170    1.419   .     D
C166   C167    1.431   .     S
C167   C170    1.431   1_545 S
C167   C308    1.416   1_545 D
C168   C169    1.431   .     S
C169   C172    1.431   .     D
C169   C174    1.416   .     S
C170   C171    1.430   .     S
C170   C167    1.431   1_565 S
C171   C174    1.431   .     D
C171   C312    1.419   .     S
C172   C173    1.430   .     S
C173   C176    1.431   .     D
C173   C178    1.419   .     S
C174   C175    1.431   .     S
C175   C178    1.430   .     D
C175   C316    1.419   .     S
C176   C177    1.431   .     S
C177   C180    1.419   .     S
C178   C179    1.431   .     S
C179   C180    1.431   .     S
C179   C320    1.416   .     D
C181   C182    1.431   .     D
C181   C213    1.430   .     S
C182   C184    1.431   .     S
C182   C186    1.416   .     S
C183   C186    1.431   .     D
C183   C216    1.430   .     S
C183   C325    1.419   .     S
C184   C185    1.430   .     S
C185   C188    1.431   .     D
C185   C190    1.419   .     S
C186   C187    1.431   .     S
C187   C190    1.430   .     D
C187   C328    1.419   .     S
C188   C189    1.431   .     S
C189   C192    1.430   .     D
C189   C194    1.419   .     S
C190   C191    1.431   .     S
C191   C194    1.431   .     D
C191   C332    1.416   .     S
C192   C193    1.431   .     S
C193   C196    1.431   .     S
C193   C198    1.416   .     D
C194   C195    1.430   .     S
C195   C198    1.431   .     S
C195   C336    1.419   .     D
C196   C197    1.430   .     S
C197   C200    1.431   .     S
C197   C202    1.419   .     D
C198   C199    1.431   .     S
C199   C202    1.430   .     S
C199   C340    1.419   .     D
C200   C201    1.431   .     S
C201   C204    1.430   .     D
C201   C206    1.419   .     S
C202   C203    1.431   .     S
C203   C206    1.431   .     D
C203   C344    1.416   .     S
C204   C205    1.431   .     S
C205   C208    1.431   .     D
C205   C210    1.416   .     S
C206   C207    1.430   .     S
C207   C210    1.431   .     D
C207   C348    1.419   .     S
C208   C209    1.430   .     S
C209   C212    1.431   .     S
C209   C214    1.419   .     D
C210   C211    1.431   .     S
C211   C214    1.430   .     S
C211   C352    1.419   .     D
C212   C213    1.431   .     S
C213   C216    1.419   .     D
C214   C215    1.431   .     S
C215   C216    1.431   .     S
C215   C356    1.416   .     D
C217   C218    1.431   .     D
C217   C249    1.430   .     S
C218   C220    1.431   .     S
C218   C222    1.416   .     S
C219   C222    1.431   .     D
C219   C252    1.430   .     S
C219   C361    1.419   .     S
C220   C221    1.430   .     S
C221   C224    1.431   .     D
C221   C226    1.419   .     S
C222   C223    1.431   .     S
C223   C226    1.430   .     D
C223   C364    1.419   .     S
C224   C225    1.431   .     S
C225   C228    1.430   .     D
C225   C230    1.419   .     S
C226   C227    1.431   .     S
C227   C230    1.431   .     D
C227   C368    1.416   .     S
C228   C229    1.431   .     S
C229   C232    1.431   .     S
C229   C234    1.416   .     D
C230   C231    1.430   .     S
C231   C234    1.431   .     S
C231   C372    1.419   .     D
C232   C233    1.430   .     S
C233   C236    1.431   .     S
C233   C238    1.419   .     D
C234   C235    1.431   .     S
C235   C238    1.430   .     S
C235   C376    1.419   .     D
C236   C237    1.431   .     S
C237   C240    1.430   .     D
C237   C242    1.419   .     S
C238   C239    1.431   .     S
C239   C242    1.431   .     D
C239   C380    1.416   .     S
C240   C241    1.431   .     S
C241   C244    1.431   .     D
C241   C246    1.416   .     S
C242   C243    1.430   .     S
C243   C246    1.431   .     D
C243   C384    1.419   .     S
C244   C245    1.430   .     S
C245   C248    1.431   .     S
C245   C250    1.419   .     D
C246   C247    1.431   .     S
C247   C250    1.430   .     S
C247   C388    1.419   .     D
C248   C249    1.431   .     S
C249   C252    1.419   .     D
C250   C251    1.431   .     S
C251   C252    1.431   .     S
C251   C392    1.416   .     D
C253   C254    1.431   .     D
C253   C285    1.430   .     S
C254   C256    1.431   1_565 S
C254   C258    1.416   1_565 S
C255   C288    1.430   .     S
C255   C397    1.419   .     D
C255   C258    1.431   1_565 S
C256   C257    1.430   .     S
C256   C254    1.431   1_545 S
C257   C260    1.431   .     D
C257   C262    1.419   .     S
C258   C259    1.431   .     D
C258   C255    1.431   1_545 S
C258   C254    1.416   1_545 S
C259   C262    1.430   .     S
C259   C400    1.419   .     S
C260   C261    1.431   .     S
C261   C264    1.430   .     D
C261   C266    1.419   .     S
C262   C263    1.431   .     D
C263   C266    1.431   .     S
C263   C404    1.416   .     S
C264   C265    1.431   .     S
C265   C268    1.431   .     S
C265   C270    1.416   .     D
C266   C267    1.430   .     D
C267   C270    1.431   .     S
C267   C408    1.419   .     S
C268   C269    1.430   .     S
C269   C274    1.419   .     D
C269   C272    1.431   1_545 S
C270   C271    1.431   .     S
C271   C274    1.430   .     S
C271   C412    1.419   .     D
C272   C273    1.431   .     S
C272   C269    1.431   1_565 S
C273   C276    1.430   .     S
C273   C278    1.419   .     D
C274   C275    1.431   1_545 S
C275   C278    1.431   .     S
C275   C416    1.416   .     D
C275   C274    1.431   1_565 S
C276   C277    1.431   .     S
C277   C280    1.431   .     D
C277   C282    1.416   .     S
C278   C279    1.430   .     S
C279   C282    1.431   .     D
C279   C420    1.419   .     S
C280   C281    1.430   .     S
C281   C284    1.431   .     S
C281   C286    1.419   .     D
C282   C283    1.431   .     S
C283   C286    1.430   .     S
C283   C424    1.419   .     D
C284   C285    1.431   .     S
C285   C288    1.419   .     D
C286   C287    1.431   .     S
C287   C288    1.431   .     S
C287   C428    1.416   .     D
C289   C321    1.430   .     D
C289   C290    1.431   1_565 S
C290   C292    1.431   .     D
C290   C289    1.431   1_545 S
C290   C294    1.416   1_545 S
C291   C294    1.431   .     S
C291   C324    1.430   .     S
C291   C433    1.419   .     D
C292   C293    1.430   .     S
C293   C296    1.431   .     D
C293   C298    1.419   .     S
C294   C290    1.416   1_565 S
C294   C295    1.431   1_565 D
C295   C298    1.430   .     S
C295   C436    1.419   .     S
C295   C294    1.431   1_545 D
C296   C297    1.431   .     S
C297   C300    1.430   .     D
C297   C302    1.419   .     S
C298   C299    1.431   .     D
C299   C302    1.431   .     S
C299   C440    1.416   .     S
C300   C301    1.431   .     S
C301   C304    1.431   .     S
C301   C306    1.416   .     D
C302   C303    1.430   .     D
C303   C306    1.431   .     S
C303   C444    1.419   .     S
C304   C305    1.430   .     S
C305   C310    1.419   .     D
C305   C308    1.431   1_545 S
C306   C307    1.431   .     S
C307   C310    1.430   .     S
C307   C448    1.419   .     D
C308   C309    1.431   .     S
C308   C305    1.431   1_565 S
C308   C167    1.416   1_565 D
C309   C312    1.430   .     D
C309   C314    1.419   .     S
C310   C311    1.431   .     S
C311   C452    1.416   .     S
C311   C314    1.431   1_545 D
C312   C313    1.431   .     S
C313   C316    1.431   .     D
C313   C318    1.416   .     S
C314   C315    1.430   .     S
C314   C311    1.431   1_565 D
C315   C318    1.431   .     D
C315   C456    1.419   .     S
C316   C317    1.430   .     S
C317   C320    1.431   .     S
C317   C322    1.419   .     D
C318   C319    1.431   .     S
C319   C322    1.430   .     S
C319   C460    1.419   .     D
C320   C321    1.431   .     S
C321   C324    1.419   .     S
C322   C323    1.431   .     S
C323   C324    1.431   .     D
C323   C464    1.416   .     S
C325   C326    1.431   .     D
C325   C357    1.430   .     S
C326   C328    1.431   .     S
C326   C330    1.416   .     S
C327   C330    1.431   .     D
C327   C360    1.430   .     S
C327   C469    1.419   .     S
C328   C329    1.430   .     D
C329   C332    1.431   .     S
C329   C334    1.419   .     S
C330   C331    1.431   .     S
C331   C334    1.430   .     S
C331   C472    1.419   .     D
C332   C333    1.431   .     D
C333   C336    1.430   .     S
C333   C338    1.419   .     S
C334   C335    1.431   .     D
C335   C338    1.431   .     S
C335   C476    1.416   .     S
C336   C337    1.431   .     S
C337   C340    1.431   .     S
C337   C342    1.416   .     D
C338   C339    1.430   .     D
C339   C342    1.431   .     S
C339   C480    1.419   .     S
C340   C341    1.430   .     S
C341   C344    1.431   .     D
C341   C346    1.419   .     S
C342   C343    1.431   .     S
C343   C346    1.430   .     D
C343   C484    1.419   .     S
C344   C345    1.431   .     S
C345   C348    1.430   .     D
C345   C350    1.419   .     S
C346   C347    1.431   .     S
C347   C350    1.431   .     D
C347   C488    1.416   .     S
C348   C349    1.431   .     S
C349   C352    1.431   .     S
C349   C354    1.416   .     D
C350   C351    1.430   .     S
C351   C354    1.431   .     S
C351   C492    1.419   .     D
C352   C353    1.430   .     S
C353   C356    1.431   .     S
C353   C358    1.419   .     D
C354   C355    1.431   .     S
C355   C358    1.430   .     S
C355   C496    1.419   .     D
C356   C357    1.431   .     S
C357   C360    1.419   .     D
C358   C359    1.431   .     S
C359   C360    1.431   .     S
C359   C500    1.416   .     D
C361   C362    1.431   .     D
C361   C393    1.430   .     S
C362   C364    1.431   .     S
C362   C366    1.416   .     S
C363   C366    1.431   .     D
C363   C396    1.430   .     S
C363   C505    1.419   .     S
C364   C365    1.430   .     D
C365   C368    1.431   .     S
C365   C370    1.419   .     S
C366   C367    1.431   .     S
C367   C370    1.430   .     S
C367   C508    1.419   .     D
C368   C369    1.431   .     D
C369   C372    1.430   .     S
C369   C374    1.419   .     S
C370   C371    1.431   .     D
C371   C374    1.431   .     S
C371   C512    1.416   .     S
C372   C373    1.431   .     S
C373   C376    1.431   .     S
C373   C378    1.416   .     D
C374   C375    1.430   .     D
C375   C378    1.431   .     S
C375   C516    1.419   .     S
C376   C377    1.430   .     S
C377   C380    1.431   .     D
C377   C382    1.419   .     S
C378   C379    1.431   .     S
C379   C382    1.430   .     D
C379   C520    1.419   .     S
C380   C381    1.431   .     S
C381   C384    1.430   .     D
C381   C386    1.419   .     S
C382   C383    1.431   .     S
C383   C386    1.431   .     D
C383   C524    1.416   .     S
C384   C385    1.431   .     S
C385   C388    1.431   .     S
C385   C390    1.416   .     D
C386   C387    1.430   .     S
C387   C390    1.431   .     S
C387   C528    1.419   .     D
C388   C389    1.430   .     S
C389   C392    1.431   .     S
C389   C394    1.419   .     D
C390   C391    1.431   .     S
C391   C394    1.430   .     S
C391   C532    1.419   .     D
C392   C393    1.431   .     S
C393   C396    1.419   .     D
C394   C395    1.431   .     S
C395   C396    1.431   .     S
C395   C536    1.416   .     D
C397   C398    1.431   .     S
C397   C429    1.430   .     S
C398   C400    1.431   1_565 S
C398   C402    1.416   1_565 D
C399   C432    1.430   .     S
C399   C541    1.419   .     D
C399   C402    1.431   1_565 S
C400   C401    1.430   .     D
C400   C398    1.431   1_545 S
C401   C404    1.431   .     S
C401   C406    1.419   .     S
C402   C403    1.431   .     S
C402   C399    1.431   1_545 S
C402   C398    1.416   1_545 D
C403   C406    1.430   .     D
C403   C544    1.419   .     S
C404   C405    1.431   .     D
C405   C408    1.430   .     S
C405   C410    1.419   .     S
C406   C407    1.431   .     S
C407   C410    1.431   .     S
C407   C548    1.416   .     D
C408   C409    1.431   .     D
C409   C412    1.431   .     S
C409   C414    1.416   .     S
C410   C411    1.430   .     D
C411   C414    1.431   .     S
C411   C552    1.419   .     S
C412   C413    1.430   .     S
C413   C418    1.419   .     D
C413   C416    1.431   1_545 S
C414   C415    1.431   .     D
C415   C418    1.430   .     S
C415   C556    1.419   .     S
C416   C417    1.431   .     S
C416   C413    1.431   1_565 S
C417   C420    1.430   .     D
C417   C422    1.419   .     S
C418   C419    1.431   1_545 S
C419   C422    1.431   .     D
C419   C560    1.416   .     S
C419   C418    1.431   1_565 S
C420   C421    1.431   .     S
C421   C424    1.431   .     S
C421   C426    1.416   .     D
C422   C423    1.430   .     S
C423   C426    1.431   .     S
C423   C564    1.419   .     D
C424   C425    1.430   .     S
C425   C428    1.431   .     S
C425   C430    1.419   .     D
C426   C427    1.431   .     S
C427   C430    1.430   .     S
C427   C568    1.419   .     D
C428   C429    1.431   .     S
C429   C432    1.419   .     D
C430   C431    1.431   .     S
C431   C432    1.431   .     S
C431   C572    1.416   .     D
C433   C465    1.430   .     S
C433   C434    1.431   1_565 S
C434   C436    1.431   .     D
C434   C433    1.431   1_545 S
C434   C438    1.416   1_545 S
C435   C438    1.431   .     S
C435   C468    1.430   .     S
C435   C577    1.419   .     D
C436   C437    1.430   .     S
C437   C442    1.419   .     D
C437   C440    1.431   .     S
C438   C434    1.416   1_565 S
C438   C439    1.431   1_565 D
C439   C442    1.430   .     S
C439   C580    1.419   .     S
C439   C438    1.431   1_545 D
C440   C441    1.431   .     D
C441   C446    1.419   .     S
C441   C444    1.430   .     S
C442   C443    1.431   .     S
C443   C446    1.431   .     S
C443   C584    1.416   .     D
C444   C445    1.431   .     D
C445   C450    1.416   .     S
C445   C448    1.431   .     S
C446   C447    1.430   .     D
C447   C450    1.431   .     S
C447   C588    1.419   .     S
C448   C449    1.430   .     S
C449   C454    1.419   .     S
C449   C452    1.431   .     D
C450   C451    1.431   .     D
C451   C454    1.430   .     S
C451   C592    1.419   .     S
C452   C453    1.431   1_545 S
C453   C458    1.419   .     S
C453   C456    1.430   .     D
C453   C452    1.431   1_565 S
C454   C455    1.431   1_545 D
C455   C458    1.431   .     S
C455   C596    1.416   .     S
C455   C454    1.431   1_565 D
C456   C457    1.431   .     S
C457   C462    1.416   .     D
C457   C460    1.431   .     S
C458   C459    1.430   .     D
C459   C462    1.431   .     S
C459   C600    1.419   .     S
C460   C461    1.430   .     S
C461   C466    1.419   .     D
C461   C464    1.431   .     S
C462   C463    1.431   .     S
C463   C466    1.430   .     S
C463   C604    1.419   .     D
C464   C465    1.431   .     D
C465   C468    1.419   .     S
C466   C467    1.431   .     S
C467   C468    1.431   .     D
C467   C608    1.416   .     S
C469   C470    1.431   .     D
C469   C501    1.430   .     S
C470   C474    1.416   .     S
C470   C472    1.431   .     S
C471   C474    1.431   .     D
C471   C504    1.430   .     S
C471   C613    1.419   .     S
C472   C473    1.430   .     S
C473   C478    1.419   .     D
C473   C476    1.431   .     S
C474   C475    1.431   .     S
C475   C478    1.430   .     S
C475   C616    1.419   .     D
C476   C477    1.431   .     D
C477   C482    1.419   .     S
C477   C480    1.430   .     S
C478   C479    1.431   .     S
C479   C482    1.431   .     S
C479   C620    1.416   .     D
C480   C481    1.431   .     D
C481   C486    1.416   .     S
C481   C484    1.431   .     S
C482   C483    1.430   .     D
C483   C486    1.431   .     S
C483   C624    1.419   .     S
C484   C485    1.430   .     D
C485   C490    1.419   .     S
C485   C488    1.431   .     S
C486   C487    1.431   .     D
C487   C490    1.430   .     S
C487   C628    1.419   .     S
C488   C489    1.431   .     D
C489   C494    1.419   .     S
C489   C492    1.430   .     S
C490   C491    1.431   .     D
C491   C494    1.431   .     S
C491   C632    1.416   .     S
C492   C493    1.431   .     S
C493   C498    1.416   .     D
C493   C496    1.431   .     S
C494   C495    1.430   .     D
C495   C498    1.431   .     S
C495   C636    1.419   .     S
C496   C497    1.430   .     S
C497   C502    1.419   .     D
C497   C500    1.431   .     S
C498   C499    1.431   .     S
C499   C502    1.430   .     S
C499   C640    1.419   .     D
C500   C501    1.431   .     S
C501   C504    1.419   .     D
C502   C503    1.431   .     S
C503   C504    1.431   .     S
C503   C644    1.416   .     D
C505   C506    1.431   .     D
C505   C537    1.430   .     S
C506   C510    1.416   .     S
C506   C508    1.431   .     S
C507   C510    1.431   .     D
C507   C540    1.430   .     S
C507   C649    1.419   .     S
C508   C509    1.430   .     S
C509   C514    1.419   .     D
C509   C512    1.431   .     S
C510   C511    1.431   .     S
C511   C514    1.430   .     S
C511   C652    1.419   .     D
C512   C513    1.431   .     D
C513   C518    1.419   .     S
C513   C516    1.430   .     S
C514   C515    1.431   .     S
C515   C518    1.431   .     S
C515   C656    1.416   .     D
C516   C517    1.431   .     D
C517   C522    1.416   .     S
C517   C520    1.431   .     S
C518   C519    1.430   .     D
C519   C522    1.431   .     S
C519   C660    1.419   .     S
C520   C521    1.430   .     D
C521   C526    1.419   .     S
C521   C524    1.431   .     S
C522   C523    1.431   .     D
C523   C526    1.430   .     S
C523   C664    1.419   .     S
C524   C525    1.431   .     D
C525   C530    1.419   .     S
C525   C528    1.430   .     S
C526   C527    1.431   .     D
C527   C530    1.431   .     S
C527   C668    1.416   .     S
C528   C529    1.431   .     S
C529   C534    1.416   .     D
C529   C532    1.431   .     S
C530   C531    1.430   .     D
C531   C534    1.431   .     S
C531   C672    1.419   .     S
C532   C533    1.430   .     S
C533   C538    1.419   .     D
C533   C536    1.431   .     S
C534   C535    1.431   .     S
C535   C538    1.430   .     S
C535   C676    1.419   .     D
C536   C537    1.431   .     S
C537   C540    1.419   .     D
C538   C539    1.431   .     S
C539   C540    1.431   .     S
C539   C680    1.416   .     D
C541   C573    1.430   .     S
C541   C542    1.431   1_565 S
C542   C544    1.431   .     D
C542   C541    1.431   1_545 S
C542   C546    1.416   1_545 S
C543   C546    1.431   .     D
C543   C576    1.430   .     S
C543   C685    1.419   .     S
C544   C545    1.430   .     S
C545   C550    1.419   .     D
C545   C548    1.431   .     S
C546   C542    1.416   1_565 S
C546   C547    1.431   1_565 S
C547   C550    1.430   .     S
C547   C688    1.419   .     D
C547   C546    1.431   1_545 S
C548   C549    1.431   .     S
C549   C554    1.419   .     D
C549   C552    1.430   .     S
C550   C551    1.431   .     S
C551   C554    1.431   .     S
C551   C692    1.416   .     D
C552   C553    1.431   .     D
C553   C558    1.416   .     S
C553   C556    1.431   .     S
C554   C555    1.430   .     S
C555   C558    1.431   .     D
C555   C696    1.419   .     S
C556   C557    1.430   .     D
C557   C562    1.419   .     S
C557   C560    1.431   1_545 S
C558   C559    1.431   .     S
C559   C562    1.430   .     S
C559   C700    1.419   .     D
C560   C561    1.431   .     D
C560   C557    1.431   1_565 S
C561   C566    1.419   .     S
C561   C564    1.430   .     S
C562   C563    1.431   .     D
C563   C704    1.416   .     S
C563   C566    1.431   1_545 S
C564   C565    1.431   .     S
C565   C570    1.416   .     D
C565   C568    1.431   .     S
C566   C567    1.430   .     D
C566   C563    1.431   1_565 S
C567   C570    1.431   .     S
C567   C708    1.419   .     S
C568   C569    1.430   .     S
C569   C574    1.419   .     D
C569   C572    1.431   .     S
C570   C571    1.431   .     S
C571   C574    1.430   .     S
C571   C712    1.419   .     D
C572   C573    1.431   .     S
C573   C576    1.419   .     D
C574   C575    1.431   .     S
C575   C576    1.431   .     S
C575   C716    1.416   .     D
C577   C578    1.431   .     S
C577   C609    1.430   .     S
C578   C580    1.431   1_565 D
C578   C582    1.416   1_565 S
C579   C612    1.430   .     S
C579   C721    1.419   .     S
C579   C582    1.431   1_565 D
C580   C581    1.430   .     S
C580   C578    1.431   1_545 D
C581   C584    1.431   .     S
C581   C586    1.419   .     D
C582   C583    1.431   .     S
C582   C579    1.431   1_545 D
C582   C578    1.416   1_545 S
C583   C586    1.430   .     S
C583   C724    1.419   .     D
C584   C585    1.431   .     S
C585   C588    1.430   .     D
C585   C590    1.419   .     S
C586   C587    1.431   .     S
C587   C590    1.431   .     D
C587   C728    1.416   .     S
C588   C589    1.431   .     S
C589   C592    1.431   .     D
C589   C594    1.416   .     S
C590   C591    1.430   .     S
C591   C594    1.431   .     S
C591   C732    1.419   .     D
C592   C593    1.430   .     S
C593   C598    1.419   .     S
C593   C596    1.431   1_545 D
C594   C595    1.431   .     D
C595   C598    1.430   .     S
C595   C736    1.419   .     S
C596   C597    1.431   .     S
C596   C593    1.431   1_565 D
C597   C600    1.430   .     S
C597   C602    1.419   .     D
C598   C599    1.431   .     D
C599   C602    1.431   1_545 S
C599   C740    1.416   1_545 S
C600   C601    1.431   .     D
C601   C604    1.431   .     S
C601   C606    1.416   .     S
C602   C603    1.430   .     S
C602   C599    1.431   1_565 S
C603   C606    1.431   .     S
C603   C744    1.419   .     D
C604   C605    1.430   .     S
C605   C608    1.431   .     S
C605   C610    1.419   .     D
C606   C607    1.431   .     D
C607   C610    1.430   .     S
C607   C748    1.419   .     S
C608   C609    1.431   .     D
C609   C612    1.419   .     S
C610   C611    1.431   .     S
C611   C612    1.431   .     D
C611   C752    1.416   .     S
C613   C614    1.431   .     D
C613   C645    1.430   .     S
C614   C616    1.431   .     S
C614   C618    1.416   .     S
C615   C618    1.431   .     D
C615   C648    1.430   .     S
C615   C757    1.419   .     S
C616   C617    1.430   .     S
C617   C620    1.431   .     S
C617   C622    1.419   .     D
C618   C619    1.431   .     S
C619   C622    1.430   .     S
C619   C760    1.419   .     D
C620   C621    1.431   .     S
C621   C624    1.430   .     D
C621   C626    1.419   .     S
C622   C623    1.431   .     S
C623   C626    1.431   .     D
C623   C764    1.416   .     S
C624   C625    1.431   .     S
C625   C628    1.431   .     D
C625   C630    1.416   .     S
C626   C627    1.430   .     S
C627   C630    1.431   .     D
C627   C768    1.419   .     S
C628   C629    1.430   .     S
C629   C632    1.431   .     S
C629   C634    1.419   .     D
C630   C631    1.431   .     S
C631   C634    1.430   .     S
C631   C772    1.419   .     D
C632   C633    1.431   .     D
C633   C636    1.430   .     S
C633   C638    1.419   .     S
C634   C635    1.431   .     S
C635   C638    1.431   .     S
C635   C776    1.416   .     D
C636   C637    1.431   .     D
C637   C640    1.431   .     S
C637   C642    1.416   .     S
C638   C639    1.430   .     D
C639   C642    1.431   .     S
C639   C780    1.419   .     S
C640   C641    1.430   .     S
C641   C644    1.431   .     S
C641   C646    1.419   .     D
C642   C643    1.431   .     D
C643   C646    1.430   .     S
C643   C784    1.419   .     S
C644   C645    1.431   .     S
C645   C648    1.419   .     D
C646   C647    1.431   .     S
C647   C648    1.431   .     S
C647   C788    1.416   .     D
C649   C650    1.431   .     D
C649   C681    1.430   .     S
C650   C652    1.431   .     S
C650   C654    1.416   .     S
C651   C654    1.431   .     D
C651   C684    1.430   .     S
C651   C793    1.419   .     S
C652   C653    1.430   .     S
C653   C656    1.431   .     S
C653   C658    1.419   .     D
C654   C655    1.431   .     S
C655   C658    1.430   .     S
C655   C796    1.419   .     D
C656   C657    1.431   .     S
C657   C660    1.430   .     D
C657   C662    1.419   .     S
C658   C659    1.431   .     S
C659   C662    1.431   .     D
C659   C800    1.416   .     S
C660   C661    1.431   .     S
C661   C664    1.431   .     D
C661   C666    1.416   .     S
C662   C663    1.430   .     S
C663   C666    1.431   .     D
C663   C804    1.419   .     S
C664   C665    1.430   .     S
C665   C668    1.431   .     S
C665   C670    1.419   .     D
C666   C667    1.431   .     S
C667   C670    1.430   .     S
C667   C808    1.419   .     D
C668   C669    1.431   .     D
C669   C672    1.430   .     S
C669   C674    1.419   .     S
C670   C671    1.431   .     S
C671   C674    1.431   .     S
C671   C812    1.416   .     D
C672   C673    1.431   .     D
C673   C676    1.431   .     S
C673   C678    1.416   .     S
C674   C675    1.430   .     D
C675   C678    1.431   .     S
C675   C816    1.419   .     S
C676   C677    1.430   .     S
C677   C680    1.431   .     S
C677   C682    1.419   .     D
C678   C679    1.431   .     D
C679   C682    1.430   .     S
C679   C820    1.419   .     S
C680   C681    1.431   .     S
C681   C684    1.419   .     D
C682   C683    1.431   .     S
C683   C684    1.431   .     S
C683   C824    1.416   .     D
C685   C717    1.430   .     D
C685   C686    1.431   1_565 S
C686   C688    1.431   .     S
C686   C690    1.416   .     D
C686   C685    1.431   1_545 S
C687   C720    1.430   .     D
C687   C829    1.419   .     S
C687   C690    1.431   1_565 S
C688   C689    1.430   .     S
C689   C692    1.431   .     S
C689   C694    1.419   .     D
C690   C691    1.431   .     S
C690   C687    1.431   1_545 S
C691   C694    1.430   .     S
C691   C832    1.419   .     D
C692   C693    1.431   .     S
C693   C696    1.430   .     D
C693   C698    1.419   .     S
C694   C695    1.431   .     S
C695   C698    1.431   .     D
C695   C836    1.416   .     S
C696   C697    1.431   .     S
C697   C700    1.431   .     S
C697   C702    1.416   .     D
C698   C699    1.430   .     S
C699   C702    1.431   .     S
C699   C840    1.419   .     D
C700   C701    1.430   .     S
C701   C704    1.431   .     D
C701   C706    1.419   .     S
C702   C703    1.431   .     S
C703   C706    1.430   .     S
C703   C844    1.419   .     D
C704   C705    1.431   1_545 S
C705   C708    1.430   .     S
C705   C710    1.419   .     D
C705   C704    1.431   1_565 S
C706   C707    1.431   1_545 D
C707   C710    1.431   .     S
C707   C848    1.416   .     S
C707   C706    1.431   1_565 D
C708   C709    1.431   .     D
C709   C712    1.431   .     S
C709   C714    1.416   .     S
C710   C711    1.430   .     S
C711   C714    1.431   .     S
C711   C852    1.419   .     D
C712   C713    1.430   .     S
C713   C716    1.431   .     S
C713   C718    1.419   .     D
C714   C715    1.431   .     D
C715   C718    1.430   .     S
C715   C856    1.419   .     S
C716   C717    1.431   .     S
C717   C720    1.419   .     S
C718   C719    1.431   .     S
C719   C720    1.431   .     S
C719   C860    1.416   .     D
C721   C753    1.430   .     S
C721   C722    1.431   1_565 D
C722   C724    1.431   .     S
C722   C726    1.416   .     S
C722   C721    1.431   1_545 D
C723   C756    1.430   .     D
C723   C1      1.419   1_556 S
C723   C726    1.431   1_565 S
C724   C725    1.430   .     S
C725   C728    1.431   .     D
C725   C730    1.419   .     S
C726   C727    1.431   .     D
C726   C723    1.431   1_545 S
C727   C730    1.430   .     S
C727   C4      1.419   1_556 S
C728   C729    1.431   .     S
C729   C732    1.430   .     S
C729   C734    1.419   .     D
C730   C731    1.431   .     D
C731   C734    1.431   .     S
C731   C8      1.416   1_556 S
C732   C733    1.431   .     S
C733   C736    1.431   .     S
C733   C738    1.416   .     D
C734   C735    1.430   .     S
C735   C738    1.431   .     S
C735   C12     1.419   1_556 D
C736   C737    1.430   .     D
C737   C742    1.419   .     S
C737   C740    1.431   1_545 S
C738   C739    1.431   .     S
C739   C742    1.430   .     D
C739   C16     1.419   1_556 S
C740   C741    1.431   .     D
C740   C737    1.431   1_565 S
C740   C599    1.416   1_565 S
C741   C744    1.430   .     S
C741   C746    1.419   .     S
C742   C743    1.431   .     S
C743   C20     1.416   1_556 S
C743   C746    1.431   1_545 D
C744   C745    1.431   .     S
C745   C748    1.431   .     S
C745   C750    1.416   .     D
C746   C747    1.430   .     S
C746   C743    1.431   1_565 D
C747   C750    1.431   .     S
C747   C24     1.419   1_556 D
C748   C749    1.430   .     D
C749   C752    1.431   .     S
C749   C754    1.419   .     S
C750   C751    1.431   .     S
C751   C754    1.430   .     S
C751   C28     1.419   1_556 D
C752   C753    1.431   .     D
C753   C756    1.419   .     S
C754   C755    1.431   .     D
C755   C756    1.431   .     S
C755   C32     1.416   1_556 S
C757   C758    1.431   .     S
C757   C789    1.430   .     D
C758   C760    1.431   .     S
C758   C762    1.416   .     D
C759   C762    1.431   .     S
C759   C792    1.430   .     D
C759   C37     1.419   1_556 S
C760   C761    1.430   .     S
C761   C764    1.431   .     D
C761   C766    1.419   .     S
C762   C763    1.431   .     S
C763   C766    1.430   .     D
C763   C40     1.419   1_556 S
C764   C765    1.431   .     S
C765   C768    1.430   .     D
C765   C770    1.419   .     S
C766   C767    1.431   .     S
C767   C770    1.431   .     D
C767   C44     1.416   1_556 S
C768   C769    1.431   .     S
C769   C772    1.431   .     S
C769   C774    1.416   .     D
C770   C771    1.430   .     S
C771   C774    1.431   .     S
C771   C48     1.419   1_556 D
C772   C773    1.430   .     S
C773   C776    1.431   .     S
C773   C778    1.419   .     D
C774   C775    1.431   .     S
C775   C778    1.430   .     S
C775   C52     1.419   1_556 D
C776   C777    1.431   .     S
C777   C780    1.430   .     S
C777   C782    1.419   .     D
C778   C779    1.431   .     S
C779   C782    1.431   .     S
C779   C56     1.416   1_556 D
C780   C781    1.431   .     D
C781   C784    1.431   .     S
C781   C786    1.416   .     S
C782   C783    1.430   .     S
C783   C786    1.431   .     S
C783   C60     1.419   1_556 D
C784   C785    1.430   .     D
C785   C788    1.431   .     S
C785   C790    1.419   .     S
C786   C787    1.431   .     D
C787   C790    1.430   .     S
C787   C64     1.419   1_556 S
C788   C789    1.431   .     S
C789   C792    1.419   .     S
C790   C791    1.431   .     D
C791   C792    1.431   .     S
C791   C68     1.416   1_556 S
C793   C794    1.431   .     S
C793   C825    1.430   .     D
C794   C796    1.431   .     S
C794   C798    1.416   .     D
C795   C798    1.431   .     S
C795   C828    1.430   .     D
C795   C73     1.419   1_556 S
C796   C797    1.430   .     S
C797   C800    1.431   .     D
C797   C802    1.419   .     S
C798   C799    1.431   .     S
C799   C802    1.430   .     D
C799   C76     1.419   1_556 S
C800   C801    1.431   .     S
C801   C804    1.430   .     D
C801   C806    1.419   .     S
C802   C803    1.431   .     S
C803   C806    1.431   .     D
C803   C80     1.416   1_556 S
C804   C805    1.431   .     S
C805   C808    1.431   .     S
C805   C810    1.416   .     D
C806   C807    1.430   .     S
C807   C810    1.431   .     S
C807   C84     1.419   1_556 D
C808   C809    1.430   .     S
C809   C812    1.431   .     S
C809   C814    1.419   .     D
C810   C811    1.431   .     S
C811   C814    1.430   .     S
C811   C88     1.419   1_556 D
C812   C813    1.431   .     S
C813   C816    1.430   .     S
C813   C818    1.419   .     D
C814   C815    1.431   .     S
C815   C818    1.431   .     S
C815   C92     1.416   1_556 D
C816   C817    1.431   .     D
C817   C820    1.431   .     S
C817   C822    1.416   .     S
C818   C819    1.430   .     S
C819   C822    1.431   .     S
C819   C96     1.419   1_556 D
C820   C821    1.430   .     D
C821   C824    1.431   .     S
C821   C826    1.419   .     S
C822   C823    1.431   .     D
C823   C826    1.430   .     S
C823   C100    1.419   1_556 S
C824   C825    1.431   .     S
C825   C828    1.419   .     S
C826   C827    1.431   .     D
C827   C828    1.431   .     S
C827   C104    1.416   1_556 S
C829   C861    1.430   .     D
C829   C830    1.431   1_565 S
C830   C832    1.431   .     S
C830   C834    1.416   .     D
C830   C829    1.431   1_545 S
C831   C864    1.430   .     D
C831   C109    1.419   1_556 S
C831   C834    1.431   1_565 S
C832   C833    1.430   .     S
C833   C836    1.431   .     D
C833   C838    1.419   .     S
C834   C835    1.431   .     S
C834   C831    1.431   1_545 S
C835   C838    1.430   .     D
C835   C112    1.419   1_556 S
C836   C837    1.431   .     S
C837   C840    1.430   .     S
C837   C842    1.419   .     D
C838   C839    1.431   .     S
C839   C842    1.431   .     S
C839   C116    1.416   1_556 D
C840   C841    1.431   .     S
C841   C844    1.431   .     S
C841   C846    1.416   .     D
C842   C843    1.430   .     S
C843   C846    1.431   .     S
C843   C120    1.419   1_556 D
C844   C845    1.430   .     S
C845   C850    1.419   .     S
C845   C848    1.431   1_545 D
C846   C847    1.431   .     S
C847   C850    1.430   .     D
C847   C124    1.419   1_556 S
C848   C849    1.431   .     S
C848   C845    1.431   1_565 D
C849   C852    1.430   .     S
C849   C854    1.419   .     D
C850   C851    1.431   1_545 S
C851   C854    1.431   .     S
C851   C128    1.416   1_566 D
C851   C850    1.431   1_565 S
C852   C853    1.431   .     S
C853   C856    1.431   .     S
C853   C858    1.416   .     D
C854   C855    1.430   .     S
C855   C858    1.431   .     S
C855   C132    1.419   1_556 D
C856   C857    1.430   .     D
C857   C860    1.431   .     S
C857   C862    1.419   .     S
C858   C859    1.431   .     S
C859   C862    1.430   .     S
C859   C136    1.419   1_556 D
C860   C861    1.431   .     S
C861   C864    1.419   .     S
C862   C863    1.431   .     D
C863   C864    1.431   .     S
C863   C140    1.416   1_556 S
